2024_89_CemigReconfigurationCases/1_SEsCemig/OUF05/OUF05SegmentosMT.dss
new line.TR12116205 bus1=BMT170884565.1.2.3,bus2=BMT167461052.1.2.3,Phases=3,Linecode=CAB103_3_3,Length=0.079521000,Units=km
new line.TR12116297 bus1=BMT167461080.1.2.3,bus2=BMT8709214B.1.2.3,Phases=3,Linecode=CAB202_3_3,Length=0.140889000,Units=km
new line.TR12116298 bus1=BMT8709214B.1.2.3,bus2=BMT167461082.1.2.3,Phases=3,Linecode=CAB202_3_3,Length=0.127471000,Units=km
new line.TR12121577 bus1=BMT167453075.1.2.3,bus2=BMT1307957B.1.2.3,Phases=3,Linecode=CABA06_3_3,Length=0.030072000,Units=km
new line.TR12121589 bus1=BMT1307957B.1.2.3,bus2=BMT1307936B.1.2.3,Phases=3,Linecode=CABA06_3_3,Length=0.031070000,Units=km
new line.TR12121592 bus1=BMT1307936B.1.2.3,bus2=BMT1307901B.1.2.3,Phases=3,Linecode=CABA06_3_3,Length=0.027079000,Units=km
new line.TR12121594 bus1=BMT1307901B.1.2.3,bus2=BMT167453076.1.2.3,Phases=3,Linecode=CABA06_3_3,Length=0.030072000,Units=km
new line.TR12123541 bus1=BMT167459620.1,bus2=BMT167459622.1,Phases=1,Linecode=CAB103_3_1,Length=0.059942000,Units=km
new line.TR12189056 bus1=BMT167454115.1.2.3,bus2=BMT167454117.1.2.3,Phases=3,Linecode=CAB103_3_3,Length=0.039212000,Units=km
new line.TR12189057 bus1=BMT167454118.1.2.3,bus2=BMT167454119.1.2.3,Phases=3,Linecode=CAB103_3_3,Length=0.010819000,Units=km
new line.TR12190201 bus1=BMT167461358.3,bus2=BMT8790144B.3,Phases=1,Linecode=CAB202_3_1,Length=0.122043000,Units=km
new line.TR12190202 bus1=BMT8790144B.3,bus2=BMT8790145B.3,Phases=1,Linecode=CAB202_3_1,Length=0.075701000,Units=km
new line.TR12190203 bus1=BMT8790145B.3,bus2=BMT8790146B.3,Phases=1,Linecode=CAB202_3_1,Length=0.101015000,Units=km
new line.TR12190204 bus1=BMT8790146B.3,bus2=BMT8790147B.3,Phases=1,Linecode=CAB202_3_1,Length=0.101153000,Units=km
new line.TR12190205 bus1=BMT8790147B.3,bus2=BMT167461360.3,Phases=1,Linecode=CAB202_3_1,Length=0.110370000,Units=km
new line.TR12274006 bus1=BMT4071795B.2,bus2=BMT167460339.2,Phases=1,Linecode=CAB202_3_1,Length=0.079438000,Units=km
new line.TR12274007 bus1=BMT167460339.2,bus2=BMT4071788B.2,Phases=1,Linecode=CAB202_3_1,Length=0.031579000,Units=km
new line.TR12274011 bus1=BMT167460339.2,bus2=BMT8877430B.2,Phases=1,Linecode=CABA06_3_1,Length=0.046276000,Units=km
new line.TR12274013 bus1=BMT8877430B.2,bus2=BMT8877431B.2,Phases=1,Linecode=CABA06_3_1,Length=0.045282000,Units=km
new line.TR12274014 bus1=BMT8877431B.2,bus2=BMT167460342.2,Phases=1,Linecode=CABA06_3_1,Length=0.046179000,Units=km
new line.TR12274681 bus1=BMT1309329B.1.2.3,bus2=BMT8878071B.1.2.3,Phases=3,Linecode=CAB103_3_3,Length=0.023435000,Units=km
new line.TR12274682 bus1=BMT8878071B.1.2.3,bus2=BMT167452880.1.2.3,Phases=3,Linecode=CAB103_3_3,Length=0.023435000,Units=km
new line.TR12274683 bus1=BMT1309336B.1.2.3,bus2=BMT8878072B.1.2.3,Phases=3,Linecode=CAB103_3_3,Length=0.034064000,Units=km
new line.TR12274684 bus1=BMT8878072B.1.2.3,bus2=BMT1309329B.1.2.3,Phases=3,Linecode=CAB103_3_3,Length=0.033307000,Units=km
new line.TR12274814 bus1=BMT1098300B.1.2.3,bus2=BMT167452833.1.2.3,Phases=3,Linecode=CAB102_3_3,Length=0.020812000,Units=km
new line.TR12274815 bus1=BMT167452833.1.2.3,bus2=BMT1097600B.1.2.3,Phases=3,Linecode=CAB102_3_3,Length=0.028605000,Units=km
new line.TR12274816 bus1=BMT167452833.1.2.3,bus2=BMT8878182B.1.2.3,Phases=3,Linecode=CABA06_3_3,Length=0.005386000,Units=km
new line.TR12274820 bus1=BMT8878182B.1.2.3,bus2=BMT8878179B.1.2.3,Phases=3,Linecode=CABA06_3_3,Length=0.037449000,Units=km
new line.TR12274825 bus1=BMT8878179B.1.2.3,bus2=BMT8878178B.1.2.3,Phases=3,Linecode=CABA06_3_3,Length=0.037449000,Units=km
new line.TR12274827 bus1=BMT8878178B.1.2.3,bus2=BMT8878176B.1.2.3,Phases=3,Linecode=CABA06_3_3,Length=0.035234000,Units=km
new line.TR12274830 bus1=BMT8878176B.1.2.3,bus2=BMT167452836.1.2.3,Phases=3,Linecode=CABA06_3_3,Length=0.036626000,Units=km
new line.TR12276562 bus1=BMT168685465.1.2.3,bus2=BMT3893568B.1.2.3,Phases=3,Linecode=CABA06_3_3,Length=0.013041000,Units=km
new line.TR12276563 bus1=BMT3893568B.1.2.3,bus2=BMT8879727B.1.2.3,Phases=3,Linecode=CABA06_3_3,Length=0.036407000,Units=km
new line.TR12276564 bus1=BMT8879727B.1.2.3,bus2=BMT8879728B.1.2.3,Phases=3,Linecode=CABA06_3_3,Length=0.034834000,Units=km
new line.TR12276565 bus1=BMT8879728B.1.2.3,bus2=BMT8879729B.1.2.3,Phases=3,Linecode=CABA06_3_3,Length=0.034719000,Units=km
new line.TR12276568 bus1=BMT8879729B.1.2.3,bus2=BMT168685467.1.2.3,Phases=3,Linecode=CABA06_3_3,Length=0.034834000,Units=km
new line.TR12276569 bus1=BMT168685467.1.2.3,bus2=BMT8879733B.1.2.3,Phases=3,Linecode=CABA06_3_3,Length=0.035474000,Units=km
new line.TR12276570 bus1=BMT8879733B.1.2.3,bus2=BMT8879734B.1.2.3,Phases=3,Linecode=CABA06_3_3,Length=0.034661000,Units=km
new line.TR12276571 bus1=BMT8879734B.1.2.3,bus2=BMT8879736B.1.2.3,Phases=3,Linecode=CABA06_3_3,Length=0.034661000,Units=km
new line.TR12276577 bus1=BMT8879736B.1.2.3,bus2=BMT8879738B.1.2.3,Phases=3,Linecode=CABA06_3_3,Length=0.037808000,Units=km
new line.TR12276578 bus1=BMT8879738B.1.2.3,bus2=BMT8879739B.1.2.3,Phases=3,Linecode=CABA06_3_3,Length=0.035474000,Units=km
new line.TR12276579 bus1=BMT8879739B.1.2.3,bus2=BMT8879742B.1.2.3,Phases=3,Linecode=CABA06_3_3,Length=0.033382000,Units=km
new line.TR12276580 bus1=BMT8879742B.1.2.3,bus2=BMT8879743B.1.2.3,Phases=3,Linecode=CABA06_3_3,Length=0.034065000,Units=km
new line.TR12276591 bus1=BMT8879743B.1.2.3,bus2=BMT8879745B.1.2.3,Phases=3,Linecode=CABA06_3_3,Length=0.034934000,Units=km
new line.TR12276592 bus1=BMT8879745B.1.2.3,bus2=BMT168685468.1.2.3,Phases=3,Linecode=CABA06_3_3,Length=0.037006000,Units=km
new line.TR12276772 bus1=BMT167768169.1.2.3,bus2=BMT167768168.1.2.3,Phases=3,Linecode=CAB204_3_3,Length=0.078931000,Units=km
new line.TR12276773 bus1=BMT167768167.1.2.3,bus2=BMT167768168.1.2.3,Phases=3,Linecode=CAB204_3_3,Length=0.020103000,Units=km
new line.TR12276778 bus1=BMT167768168.1.2.3,bus2=BMT8879913B.1.2.3,Phases=3,Linecode=CABA06_3_3,Length=0.035347000,Units=km
new line.TR12276779 bus1=BMT8879913B.1.2.3,bus2=BMT167768170.1.2.3,Phases=3,Linecode=CABA06_3_3,Length=0.036145000,Units=km
new line.TR12277416 bus1=BMT169980134.1.2.3,bus2=BMT167460062.1.2.3,Phases=3,Linecode=CAB204_3_3,Length=0.084221000,Units=km
new line.TR12277417 bus1=BMT167460062.1.2.3,bus2=BMT169980131.1.2.3,Phases=3,Linecode=CAB204_3_3,Length=0.051161000,Units=km
new line.TR12277451 bus1=BMT167530527.1.2.3,bus2=BMT8880468B.1.2.3,Phases=3,Linecode=CAB202_3_3,Length=0.039828000,Units=km
new line.TR12277452 bus1=BMT8880468B.1.2.3,bus2=BMT8880469B.1.2.3,Phases=3,Linecode=CAB202_3_3,Length=0.050124000,Units=km
new line.TR12277453 bus1=BMT8880469B.1.2.3,bus2=BMT8880470B.1.2.3,Phases=3,Linecode=CAB202_3_3,Length=0.059687000,Units=km
new line.TR12277503 bus1=BMT8880470B.1.2.3,bus2=BMT8880471B.1.2.3,Phases=3,Linecode=CAB202_3_3,Length=0.089901000,Units=km
new line.TR12126885 bus1=BMT171470937.2,bus2=BMT171470940.2,Phases=1,Linecode=CAB202_3_1,Length=0.039818000,Units=km
new line.TR12126886 bus1=BMT171470940.2,bus2=BMT171470941.2,Phases=1,Linecode=CAB203_3_1,Length=0.079942000,Units=km
new line.TR12133494 bus1=BMT2634352B.1.2.3,bus2=BMT167454012.1.2.3,Phases=3,Linecode=CAB202_3_3,Length=0.157837000,Units=km
new line.TR12133495 bus1=BMT167454012.1.2.3,bus2=BMT167454014.1.2.3,Phases=3,Linecode=CAB202_3_3,Length=0.019108000,Units=km
new line.TR12133497 bus1=BMT167454012.1,bus2=BMT8727332B.1,Phases=1,Linecode=CAB202_3_1,Length=0.045284000,Units=km
new line.TR12133498 bus1=BMT8727332B.1,bus2=BMT167454015.1,Phases=1,Linecode=CAB202_3_1,Length=0.195196000,Units=km
new line.TR12133499 bus1=BMT167454015.1,bus2=BMT167454016.1,Phases=1,Linecode=CAB103_3_1,Length=0.070189000,Units=km
new line.TR12206417 bus1=BMT170020521.1.2.3,bus2=BMT170020522.1.2.3,Phases=3,Linecode=CABA06_3_3,Length=0.029737000,Units=km
new line.TR12206418 bus1=BMT170020522.1.2.3,bus2=BMT6756819B.1.2.3,Phases=3,Linecode=CABA06_3_3,Length=0.029416000,Units=km
new line.TR12206432 bus1=BMT6756819B.1.2.3,bus2=BMT170020523.1.2.3,Phases=3,Linecode=CABA06_3_3,Length=0.010442000,Units=km
new line.TR12209738 bus1=BMT171058455.1.2.3,bus2=BMT171058456.1.2.3,Phases=3,Linecode=CABA06_3_3,Length=0.034371000,Units=km
new line.TR12209785 bus1=BMT167452861.1.2.3,bus2=BMT8810753B.1.2.3,Phases=3,Linecode=CAB902_4_3,Length=0.030892000,Units=km
new line.TR12209786 bus1=BMT8810753B.1.2.3,bus2=BMT167452862.1.2.3,Phases=3,Linecode=CAB902_4_3,Length=0.005001000,Units=km
new line.TR12210140 bus1=BMT167458461.1,bus2=BMT167458463.1,Phases=1,Linecode=CAB103_3_1,Length=0.046964000,Units=km
new line.TR12211232 bus1=BMT167460264.1.2.3,bus2=BMT8812253B.1.2.3,Phases=3,Linecode=CAB202_3_3,Length=0.027662000,Units=km
new line.TR12211233 bus1=BMT8812253B.1.2.3,bus2=BMT167460266.1.2.3,Phases=3,Linecode=CAB202_3_3,Length=0.026309000,Units=km
new line.TR12211809 bus1=BMT167459563.2,bus2=BMT167459565.2,Phases=1,Linecode=CAB202_3_1,Length=0.195019000,Units=km
new line.TR12211810 bus1=BMT167459586.2,bus2=BMT167459587.2,Phases=1,Linecode=CAB202_3_1,Length=0.229428000,Units=km
new line.TR12213037 bus1=BMT168914853.2,bus2=BMT168914856.2,Phases=1,Linecode=CAB202_3_1,Length=0.171078000,Units=km
new line.TR12213038 bus1=BMT3109869B.2,bus2=BMT168914856.2,Phases=1,Linecode=CAB202_3_1,Length=0.034833000,Units=km
new line.TR12213058 bus1=BMT168914856.2,bus2=BMT8813948B.2,Phases=1,Linecode=CAB202_3_1,Length=0.056043000,Units=km
new line.TR12213059 bus1=BMT8813948B.2,bus2=BMT168914857.2,Phases=1,Linecode=CAB202_3_1,Length=0.040030000,Units=km
new line.TR12213060 bus1=BMT168914857.2,bus2=BMT168914858.2,Phases=1,Linecode=CAB103_3_1,Length=0.069865000,Units=km
new line.TR12213244 bus1=BMT167460262.1.2.3,bus2=BMT167460263.1.2.3,Phases=3,Linecode=CAB104_3_3,Length=0.035739000,Units=km
new line.TR12213245 bus1=BMT167460263.1.2.3,bus2=BMT167460264.1.2.3,Phases=3,Linecode=CAB104_3_3,Length=0.019927000,Units=km
new line.TR12213247 bus1=BMT167460263.1.2.3,bus2=BMT2280789B.1.2.3,Phases=3,Linecode=CABA06_3_3,Length=0.044288000,Units=km
new line.TR12213704 bus1=BMT170510278.1,bus2=BMT8814288B.1,Phases=1,Linecode=CAB202_3_1,Length=0.159691000,Units=km
new line.TR12213705 bus1=BMT8814288B.1,bus2=BMT170510280.1,Phases=1,Linecode=CAB202_3_1,Length=0.210236000,Units=km
new line.TR12213706 bus1=BMT170510280.1,bus2=BMT170510281.1,Phases=1,Linecode=CAB103_3_1,Length=0.065310000,Units=km
new line.TR12285397 bus1=BMT3103989B.2,bus2=BMT167460363.2,Phases=1,Linecode=CAB202_3_1,Length=0.048852000,Units=km
new line.TR12285398 bus1=BMT167460363.2,bus2=BMT3103982B.2,Phases=1,Linecode=CAB202_3_1,Length=0.054237000,Units=km
new line.TR12285399 bus1=BMT167460363.2,bus2=BMT167460365.2,Phases=1,Linecode=CAB202_3_1,Length=0.052006000,Units=km
new line.TR12290072 bus1=BMT168685281.2,bus2=BMT8891963B.2,Phases=1,Linecode=CAB202_3_1,Length=0.168989000,Units=km
new line.TR12290073 bus1=BMT8891963B.2,bus2=BMT168685283.2,Phases=1,Linecode=CAB202_3_1,Length=0.165774000,Units=km
new line.TR12356434 bus1=BMT167461113.1,bus2=BMT167461115.1,Phases=1,Linecode=CAB103_3_1,Length=0.024355000,Units=km
new line.TR12356500 bus1=BMT2309545B.3,bus2=BMT167459472.3,Phases=1,Linecode=CAB202_3_1,Length=0.088294000,Units=km
new line.TR12356501 bus1=BMT167459472.3,bus2=BMT2309552B.3,Phases=1,Linecode=CAB202_3_1,Length=0.052096000,Units=km
new line.TR12357778 bus1=BMT167460192.1,bus2=BMT167460194.1,Phases=1,Linecode=CAB103_3_1,Length=0.066737000,Units=km
new line.TR12364890 bus1=BMT167452922.1.2.3,bus2=BMT8226441B.1.2.3,Phases=3,Linecode=CABA06_3_3,Length=0.029838000,Units=km
new line.TR12364891 bus1=BMT8226441B.1.2.3,bus2=BMT8226455B.1.2.3,Phases=3,Linecode=CABA06_3_3,Length=0.032254000,Units=km
new line.TR12364892 bus1=BMT8226455B.1.2.3,bus2=BMT8226476B.1.2.3,Phases=3,Linecode=CABA06_3_3,Length=0.046537000,Units=km
new line.TR12364893 bus1=BMT8226476B.1.2.3,bus2=BMT8968632B.1.2.3,Phases=3,Linecode=CABA06_3_3,Length=0.048381000,Units=km
new line.TR12364894 bus1=BMT8968632B.1.2.3,bus2=BMT8968633B.1.2.3,Phases=3,Linecode=CABA06_3_3,Length=0.047018000,Units=km
new line.TR12364895 bus1=BMT8968633B.1.2.3,bus2=BMT167452924.1.2.3,Phases=3,Linecode=CABA06_3_3,Length=0.034488000,Units=km
new line.TR12364896 bus1=BMT167452924.1.2.3,bus2=BMT8968662B.1.2.3,Phases=3,Linecode=CABA06_3_3,Length=0.023774000,Units=km
new line.TR12364897 bus1=BMT8968662B.1.2.3,bus2=BMT167452925.1.2.3,Phases=3,Linecode=CABA06_3_3,Length=0.036884000,Units=km
new line.TR12364899 bus1=BMT167452924.1.2.3,bus2=BMT8968669B.1.2.3,Phases=3,Linecode=CABA06_3_3,Length=0.034676000,Units=km
new line.TR12364900 bus1=BMT8968669B.1.2.3,bus2=BMT167452926.1.2.3,Phases=3,Linecode=CABA06_3_3,Length=0.021544000,Units=km
new line.TR12364901 bus1=BMT167452926.1.2.3,bus2=BMT8968674B.1.2.3,Phases=3,Linecode=CABA06_3_3,Length=0.026575000,Units=km
new line.TR12364903 bus1=BMT8968674B.1.2.3,bus2=BMT8968676B.1.2.3,Phases=3,Linecode=CABA06_3_3,Length=0.024702000,Units=km
new line.TR12364905 bus1=BMT8968676B.1.2.3,bus2=BMT167452927.1.2.3,Phases=3,Linecode=CABA06_3_3,Length=0.029160000,Units=km
new line.TR12364906 bus1=BMT167452926.1.2.3,bus2=BMT8968684B.1.2.3,Phases=3,Linecode=CABA06_3_3,Length=0.009221000,Units=km
new line.TR12364907 bus1=BMT8968684B.1.2.3,bus2=BMT167452928.1.2.3,Phases=3,Linecode=CABA06_3_3,Length=0.034934000,Units=km
new line.TR12364960 bus1=BMT167452866.1.2.3,bus2=BMT3985268B.1.2.3,Phases=3,Linecode=CABA06_3_3,Length=0.026424000,Units=km
new line.TR12364961 bus1=BMT3985268B.1.2.3,bus2=BMT8968694B.1.2.3,Phases=3,Linecode=CABA06_3_3,Length=0.016127000,Units=km
new line.TR12149870 bus1=BMT167453612.2,bus2=BMT8745765B.2,Phases=1,Linecode=CAB103_3_1,Length=0.079564000,Units=km
new line.TR12149871 bus1=BMT8745765B.2,bus2=BMT167453615.2,Phases=1,Linecode=CAB103_3_1,Length=0.006326000,Units=km
new line.TR12149872 bus1=BMT167453616.2,bus2=BMT8745767B.2,Phases=1,Linecode=CAB103_3_1,Length=0.047513000,Units=km
new line.TR12149873 bus1=BMT8745767B.2,bus2=BMT8745768B.2,Phases=1,Linecode=CAB103_3_1,Length=0.060414000,Units=km
new line.TR12149880 bus1=BMT8745768B.2,bus2=BMT8745769B.2,Phases=1,Linecode=CAB103_3_1,Length=0.060090000,Units=km
new line.TR12149881 bus1=BMT8745769B.2,bus2=BMT167453627.2,Phases=1,Linecode=CAB103_3_1,Length=0.069124000,Units=km
new line.TR12149882 bus1=BMT167453627.2,bus2=BMT8745771B.2,Phases=1,Linecode=CAB202_3_1,Length=0.078271000,Units=km
new line.TR12149883 bus1=BMT8745771B.2,bus2=BMT167453628.2,Phases=1,Linecode=CAB202_3_1,Length=0.330229000,Units=km
new line.TR12150681 bus1=BMT168685175.2,bus2=BMT168685177.2,Phases=1,Linecode=CAB103_3_1,Length=0.054139000,Units=km
new line.TR12152591 bus1=BMT167454714.1,bus2=BMT167454715.1,Phases=1,Linecode=CAB102_3_1,Length=0.029074000,Units=km
new line.TR12235602 bus1=BMT167459438.3,bus2=BMT167459440.3,Phases=1,Linecode=CAB202_3_1,Length=0.114655000,Units=km
new line.TR12236152 bus1=BMT169642592.1.2.3,bus2=BMT1115723B.1.2.3,Phases=3,Linecode=CABA06_3_3,Length=0.030600000,Units=km
new line.TR12236155 bus1=BMT1115723B.1.2.3,bus2=BMT8837660B.1.2.3,Phases=3,Linecode=CABA06_3_3,Length=0.020400000,Units=km
new line.TR12236158 bus1=BMT8837660B.1.2.3,bus2=BMT1115128B.1.2.3,Phases=3,Linecode=CABA06_3_3,Length=0.036681000,Units=km
new line.TR12236161 bus1=BMT1115128B.1.2.3,bus2=BMT169642593.1.2.3,Phases=3,Linecode=CABA06_3_3,Length=0.036681000,Units=km
new line.TR12243816 bus1=BMT167454556.3,bus2=BMT167454559.3,Phases=1,Linecode=CAB202_3_1,Length=0.097756000,Units=km
new line.TR12314358 bus1=BMT167460884.1.2.3,bus2=BMT167460886.1.2.3,Phases=3,Linecode=CAB202_3_3,Length=0.062250000,Units=km
new line.TR12314359 bus1=BMT167460886.1.2.3,bus2=BMT167460887.1.2.3,Phases=3,Linecode=CAB202_3_3,Length=0.121351000,Units=km
new line.TR12314362 bus1=BMT167460886.1.2.3,bus2=BMT167460888.1.2.3,Phases=3,Linecode=CAB103_3_3,Length=0.015814000,Units=km
new line.TR12314589 bus1=BMT168684985.1,bus2=BMT168684987.1,Phases=1,Linecode=CAB103_3_1,Length=0.070011000,Units=km
new line.TR12314595 bus1=BMT168684997.2,bus2=BMT168684999.2,Phases=1,Linecode=CAB202_3_1,Length=0.009057000,Units=km
new line.TR12314596 bus1=BMT168685000.2,bus2=BMT168685001.2,Phases=1,Linecode=CAB202_3_1,Length=0.241784000,Units=km
new line.TR12387350 bus1=BMT3104052B.2,bus2=BMT167460359.2,Phases=1,Linecode=CAB202_3_1,Length=0.057782000,Units=km
new line.TR12387351 bus1=BMT167460359.2,bus2=BMT167460360.2,Phases=1,Linecode=CAB202_3_1,Length=0.039930000,Units=km
new line.TR12387355 bus1=BMT167460359.2,bus2=BMT167460361.2,Phases=1,Linecode=CAB202_3_1,Length=0.090038000,Units=km
new line.TR12388656 bus1=BMT168684980.1.2.3,bus2=BMT168684974.1.2.3,Phases=3,Linecode=CABA06_3_3,Length=0.040231000,Units=km
new line.TR12388657 bus1=BMT172646685.1.2.3,bus2=BMT6689206B.1.2.3,Phases=3,Linecode=CABA06_3_3,Length=0.039668000,Units=km
new line.TR12388658 bus1=BMT168684972.1.2.3,bus2=BMT172646684.1.2.3,Phases=3,Linecode=CABA06_3_3,Length=0.031628000,Units=km
new line.TR12388659 bus1=BMT172646684.1.2.3,bus2=BMT8994459B.1.2.3,Phases=3,Linecode=CABA06_3_3,Length=0.030876000,Units=km
new line.TR12388660 bus1=BMT8994459B.1.2.3,bus2=BMT8994461B.1.2.3,Phases=3,Linecode=CABA06_3_3,Length=0.029416000,Units=km
new line.TR12388661 bus1=BMT8994461B.1.2.3,bus2=BMT8994462B.1.2.3,Phases=3,Linecode=CABA06_3_3,Length=0.027790000,Units=km
new line.TR12388664 bus1=BMT168684966.1.2.3,bus2=BMT172646678.1.2.3,Phases=3,Linecode=CAB103_3_3,Length=0.016404000,Units=km
new line.TR12388667 bus1=BMT8994462B.1.2.3,bus2=BMT8994484B.1.2.3,Phases=3,Linecode=CABA06_3_3,Length=0.028183000,Units=km
new line.TR12388668 bus1=BMT8994484B.1.2.3,bus2=BMT8994483B.1.2.3,Phases=3,Linecode=CABA06_3_3,Length=0.026405000,Units=km
new line.TR12388669 bus1=BMT8994483B.1.2.3,bus2=BMT8994482B.1.2.3,Phases=3,Linecode=CABA06_3_3,Length=0.035853000,Units=km
new line.TR12388672 bus1=BMT8994482B.1.2.3,bus2=BMT172646681.1.2.3,Phases=3,Linecode=CABA06_3_3,Length=0.035853000,Units=km
new line.TR12388680 bus1=BMT172646681.1.2.3,bus2=BMT172646680.1.2.3,Phases=3,Linecode=CABA06_3_3,Length=0.030370000,Units=km
new line.TR12388681 bus1=BMT172646680.2,bus2=BMT8810372B.2,Phases=1,Linecode=CAB202_3_1,Length=0.057992000,Units=km
new line.TR12388689 bus1=BMT172646678.1.2.3,bus2=BMT172646679.1.2.3,Phases=3,Linecode=CAB103_3_3,Length=0.064910000,Units=km
new line.TR12388692 bus1=BMT172646680.1.2.3,bus2=BMT172646678.1.2.3,Phases=3,Linecode=CABA06_3_3,Length=0.033142000,Units=km
new line.TR12388694 bus1=BMT172646678.1.2.3,bus2=BMT8994478B.1.2.3,Phases=3,Linecode=CABA06_3_3,Length=0.039211000,Units=km
new line.TR12388699 bus1=BMT8994477B.1.2.3,bus2=BMT8994476B.1.2.3,Phases=3,Linecode=CABA06_3_3,Length=0.033740000,Units=km
new line.TR12388711 bus1=BMT172646675.1.2.3,bus2=BMT8994472B.1.2.3,Phases=3,Linecode=CABA06_3_3,Length=0.041311000,Units=km
new line.TR12388712 bus1=BMT8994472B.1.2.3,bus2=BMT172646674.1.2.3,Phases=3,Linecode=CABA06_3_3,Length=0.033142000,Units=km
new line.TR12388713 bus1=BMT168684958.1.2.3,bus2=BMT8994469B.1.2.3,Phases=3,Linecode=CABA06_3_3,Length=0.031070000,Units=km
new line.TR12388724 bus1=BMT171202912.1.2.3,bus2=BMT171202913.1.2.3,Phases=3,Linecode=CAB103_3_3,Length=0.006326000,Units=km
new line.TR12388730 bus1=BMT172646676.1,bus2=BMT172646677.1,Phases=1,Linecode=CAB103_3_1,Length=0.010052000,Units=km
new line.TR12388738 bus1=BMT168684976.3,bus2=BMT168684978.3,Phases=1,Linecode=CAB202_3_1,Length=0.089457000,Units=km
new line.TR12388759 bus1=BMT171202913.1.2.3,bus2=BMT8994469B.1.2.3,Phases=3,Linecode=CABA06_3_3,Length=0.026688000,Units=km
new line.TR12389858 bus1=BMT172629683.1,bus2=BMT172629686.1,Phases=1,Linecode=CAB103_3_1,Length=0.079568000,Units=km
new line.TR12390742 bus1=BMT167459434.3,bus2=BMT8996702B.3,Phases=1,Linecode=CAB103_3_1,Length=0.034532000,Units=km
new line.TR12390745 bus1=BMT8996702B.3,bus2=BMT8996704B.3,Phases=1,Linecode=CAB103_3_1,Length=0.047716000,Units=km
new line.TR12390747 bus1=BMT8996704B.3,bus2=BMT8996706B.3,Phases=1,Linecode=CAB103_3_1,Length=0.056055000,Units=km
new line.TR12390748 bus1=BMT8996706B.3,bus2=BMT167459435.3,Phases=1,Linecode=CAB103_3_1,Length=0.056446000,Units=km
new line.TR12392071 bus1=BMT167459164.3,bus2=BMT167459165.3,Phases=1,Linecode=CAB203_3_1,Length=0.016003000,Units=km
new line.TR12155527 bus1=BMT167768164.1.2.3,bus2=BMT167768166.1.2.3,Phases=3,Linecode=CABA06_3_3,Length=0.025322000,Units=km
new line.TR12155638 bus1=BMT8554811B.3,bus2=BMT8751245B.3,Phases=1,Linecode=CAB202_3_1,Length=0.099701000,Units=km
new line.TR12155639 bus1=BMT8554818B.3,bus2=BMT8751245B.3,Phases=1,Linecode=CAB202_3_1,Length=0.188236000,Units=km
new line.TR12158531 bus1=BMT4028640B.1.2.3,bus2=BMT169980125.1.2.3,Phases=3,Linecode=CAB204_3_3,Length=0.045281000,Units=km
new line.TR12158532 bus1=BMT4028647B.1.2.3,bus2=BMT169980125.1.2.3,Phases=3,Linecode=CAB204_3_3,Length=0.063290000,Units=km
new line.TR12158537 bus1=BMT169980125.1.2.3,bus2=BMT169980128.1.2.3,Phases=3,Linecode=CAB103_3_3,Length=0.052483000,Units=km
new line.TR12158539 bus1=BMT169980128.1.2.3,bus2=BMT169980129.1.2.3,Phases=3,Linecode=CAB202_3_3,Length=0.117640000,Units=km
new line.TR12158540 bus1=BMT169980129.1.2.3,bus2=BMT169980130.1.2.3,Phases=3,Linecode=CAB103_3_3,Length=0.042016000,Units=km
new line.TR12224457 bus1=BMT167454384.1.2.3,bus2=BMT167454385.1.2.3,Phases=3,Linecode=CAB102_3_3,Length=0.023605000,Units=km
new line.TR12224458 bus1=BMT1114225B.1.2.3,bus2=BMT167454385.1.2.3,Phases=3,Linecode=CAB102_3_3,Length=0.012044000,Units=km
new line.TR12224460 bus1=BMT167454390.1.2.3,bus2=BMT167454391.1.2.3,Phases=3,Linecode=CAB902_4_3,Length=0.003607000,Units=km
new line.TR12224550 bus1=BMT167460461.1,bus2=BMT167460463.1,Phases=1,Linecode=CAB103_3_1,Length=0.043937000,Units=km
new line.TR12224551 bus1=BMT167460463.1,bus2=BMT167460464.1,Phases=1,Linecode=CAB103_3_1,Length=0.035907000,Units=km
new line.TR12224552 bus1=BMT167460463.1,bus2=BMT167460465.1,Phases=1,Linecode=CAB103_3_1,Length=0.076068000,Units=km
new line.TR12225532 bus1=BMT167460415.2,bus2=BMT8826271B.2,Phases=1,Linecode=CAB103_3_1,Length=0.067127000,Units=km
new line.TR12225534 bus1=BMT8826271B.2,bus2=BMT167460418.2,Phases=1,Linecode=CAB103_3_1,Length=0.067127000,Units=km
new line.TR12226469 bus1=BMT167454657.2,bus2=BMT167454660.2,Phases=1,Linecode=CAB103_3_1,Length=0.090037000,Units=km
new line.TR12226700 bus1=BMT167459152.3,bus2=BMT167459153.3,Phases=1,Linecode=CAB202_3_1,Length=0.026913000,Units=km
new line.TR12226701 bus1=BMT167459149.3,bus2=BMT8827745B.3,Phases=1,Linecode=CAB202_3_1,Length=0.406369000,Units=km
new line.TR12226702 bus1=BMT167459151.3,bus2=BMT8827745B.3,Phases=1,Linecode=CAB202_3_1,Length=0.026913000,Units=km
new line.TR12228059 bus1=BMT167458570.3,bus2=BMT170884826.3,Phases=1,Linecode=CAB103_3_1,Length=0.077846000,Units=km
new line.TR12230122 bus1=BMT2966103B.1.2.3,bus2=BMT8831187B.1.2.3,Phases=3,Linecode=CABA08_3_3,Length=0.011048000,Units=km
new line.TR12230123 bus1=BMT1103333B.1.2.3,bus2=BMT8831187B.1.2.3,Phases=3,Linecode=CABA08_3_3,Length=0.006084000,Units=km
new line.TR12232885 bus1=BMT170183681.1.2.3,bus2=BMT8834415B.1.2.3,Phases=3,Linecode=CABA08_3_3,Length=0.005001000,Units=km
new line.TR12232886 bus1=BMT8834415B.1.2.3,bus2=BMT168684898.1.2.3,Phases=3,Linecode=CABA08_3_3,Length=0.029433000,Units=km
new line.TR12233177 bus1=BMT2283197D.1.2.3,bus2=BMT8390717D.1.2.3,Phases=3,Linecode=CABA06_3_3,Length=0.011048000,Units=km
new line.TR12233178 bus1=BMT8390717D.1.2.3,bus2=BMT167458437.1.2.3,Phases=3,Linecode=CABA06_3_3,Length=0.033142000,Units=km
new line.TR12315818 bus1=BMT168685400.1.2.3,bus2=BMT1103494B.1.2.3,Phases=3,Linecode=CAB103_3_3,Length=0.029160000,Units=km
new line.TR12315819 bus1=BMT1103494B.1.2.3,bus2=BMT1103508B.1.2.3,Phases=3,Linecode=CAB103_3_3,Length=0.029552000,Units=km
new line.TR12315822 bus1=BMT1103508B.1.2.3,bus2=BMT3063130B.1.2.3,Phases=3,Linecode=CAB103_3_3,Length=0.039224000,Units=km
new line.TR12315823 bus1=BMT3063130B.1.2.3,bus2=BMT1104145B.1.2.3,Phases=3,Linecode=CAB103_3_3,Length=0.039300000,Units=km
new line.TR12315824 bus1=BMT1104145B.1.2.3,bus2=BMT168685401.1.2.3,Phases=3,Linecode=CAB103_3_3,Length=0.034488000,Units=km
new line.TR12315825 bus1=BMT167452613.1.2.3,bus2=BMT1104166B.1.2.3,Phases=3,Linecode=CAB103_3_3,Length=0.037006000,Units=km
new line.TR12315827 bus1=BMT1104166B.1.2.3,bus2=BMT1104180B.1.2.3,Phases=3,Linecode=CAB103_3_3,Length=0.032579000,Units=km
new line.TR12316006 bus1=BMT167461451.1.2.3,bus2=BMT1104180B.1.2.3,Phases=3,Linecode=CAB103_3_3,Length=0.038904000,Units=km
...
