2024_89_CemigReconfigurationCases/1_SEsCemig/OUF05/OUF05ChavesMT.dss
new line.CTR10815 bus1=BMT167454369.1.2.3,bus2=BMT169643388.1.2.3,Phases=3,LineCode=tieSwitch,Length=0.001,Units=km,switch=T !numEQ 47200
new line.CTR10962 bus1=BMT167453065.1.2.3,bus2=BMT167453067.1.2.3,Phases=3,LineCode=tieSwitch,Length=0.001,Units=km,switch=T !numEQ 79216
new line.CTR121352 bus1=BMT167453241.2,bus2=BMT167453252.2,Phases=1,LineCode=tieSwitch1,Length=0.001,Units=km,switch=T !numEQ 112990
new line.CTR135646 bus1=BMT167454586.1.2.3,bus2=BMT167454590.1.2.3,Phases=3,LineCode=tieSwitch,Length=0.001,Units=km,switch=T !numEQ 175178
new line.CTR135723 bus1=BMT168684890.1.2.3,bus2=BMT170183679.1.2.3,Phases=3,LineCode=tieSwitch,Length=0.001,Units=km,switch=T !numEQ 44693
new line.CTR135730 bus1=BMT167459852.1.2.3,bus2=BMT167461476.1.2.3,Phases=3,LineCode=tieSwitch,Length=0.001,Units=km,switch=T !numEQ 79217
new line.CTR135751 bus1=BMT167459994.2,bus2=BMT167460405.2,Phases=1,LineCode=tieSwitch1,Length=0.001,Units=km,switch=T !numEQ 79238
new line.CTR135758 bus1=BMT168684952.1.2.3,bus2=BMT168685386.1.2.3,Phases=3,LineCode=tieSwitch,Length=0.001,Units=km,switch=T !numEQ 79210
new line.CTR135765 bus1=BMT167459934.1.2.3,bus2=BMT167459935.1.2.3,Phases=3,LineCode=tieSwitch,Length=0.001,Units=km,switch=T !numEQ 44854
new line.CTR135772 bus1=BMT168684955.1.2.3,bus2=BMT168685049.1.2.3,Phases=3,LineCode=tieSwitch,Length=0.001,Units=km,switch=T !numEQ 44820
new line.CTR135786 bus1=BMT168685018.2,bus2=BMT168685021.2,Phases=1,LineCode=tieSwitch1,Length=0.001,Units=km,switch=T !numEQ 79258
new line.CTR135793 bus1=BMT172629695.3,bus2=BMT172629702.3,Phases=1,LineCode=tieSwitch1,Length=0.001,Units=km,switch=T !numEQ 79263
new line.CTR135800 bus1=BMT167459864.1.2.3,bus2=BMT167461424.1.2.3,Phases=3,LineCode=tieSwitch,Length=0.001,Units=km,switch=T !numEQ 79212
new line.CTR135807 bus1=BMT167460345.2,bus2=BMT167460350.2,Phases=1,LineCode=tieSwitch1,Length=0.001,Units=km,switch=T !numEQ 79246
new line.CTR135814 bus1=BMT168685150.2,bus2=BMT168685166.2,Phases=1,LineCode=tieSwitch1,Length=0.001,Units=km,switch=T !numEQ 301912
new line.CTR135828 bus1=BMT168685154.2,bus2=BMT168685155.2,Phases=1,LineCode=tieSwitch1,Length=0.001,Units=km,switch=T !numEQ 302684
new line.CTR135835 bus1=BMT168685098.1,bus2=BMT168685108.1,Phases=1,LineCode=tieSwitch1,Length=0.001,Units=km,switch=T !numEQ 79259
new line.CTR135842 bus1=BMT167459945.1,bus2=BMT167460741.1,Phases=1,LineCode=tieSwitch1,Length=0.001,Units=km,switch=T !numEQ 79223
new line.CTR135849 bus1=BMT167459950.1.2.3,bus2=BMT171269751.1.2.3,Phases=3,LineCode=tieSwitch,Length=0.001,Units=km,switch=T !numEQ 44855
new line.CTR135856 bus1=BMT167459988.1.2.3,bus2=BMT167460458.1.2.3,Phases=3,LineCode=tieSwitch,Length=0.001,Units=km,switch=T !numEQ 79236
new line.CTR135863 bus1=BMT167460009.1.2.3,bus2=BMT167460256.1.2.3,Phases=3,LineCode=tieSwitch,Length=0.001,Units=km,switch=T !numEQ 44711
new line.CTR135870 bus1=BMT167460266.1.2.3,bus2=BMT171150174.1.2.3,Phases=3,LineCode=tieSwitch,Length=0.001,Units=km,switch=T !numEQ 380739
new line.CTR135877 bus1=BMT167460324.2,bus2=BMT167460370.2,Phases=1,LineCode=tieSwitch1,Length=0.001,Units=km,switch=T !numEQ 44876
new line.CTR135884 bus1=BMT167460308.2,bus2=BMT167460318.2,Phases=1,LineCode=tieSwitch1,Length=0.001,Units=km,switch=T !numEQ 79243
new line.CTR135898 bus1=BMT167460008.3,bus2=BMT167460250.3,Phases=1,LineCode=tieSwitch1,Length=0.001,Units=km,switch=T !numEQ 79244
new line.CTR135905 bus1=BMT167460887.1.2.3,bus2=BMT172249639.1.2.3,Phases=3,LineCode=tieSwitch,Length=0.001,Units=km,switch=T !numEQ 44722
new line.CTR135912 bus1=BMT167460012.3,bus2=BMT167460236.3,Phases=1,LineCode=tieSwitch1,Length=0.001,Units=km,switch=T !numEQ 79335
new line.CTR135919 bus1=BMT167460835.1.2.3,bus2=BMT167461326.1.2.3,Phases=3,LineCode=tieSwitch,Length=0.001,Units=km,switch=T !numEQ 44727
new line.CTR135926 bus1=BMT167461334.3,bus2=BMT168364645.3,Phases=1,LineCode=tieSwitch1,Length=0.001,Units=km,switch=T !numEQ 44732
new line.CTR135933 bus1=BMT172636715.2,bus2=BMT167460490.2,Phases=1,LineCode=tieSwitch1,Length=0.001,Units=km,switch=T !numEQ 301914
new line.CTR135947 bus1=BMT167460577.1.2.3,bus2=BMT167460578.1.2.3,Phases=3,LineCode=tieSwitch,Length=0.001,Units=km,switch=T !numEQ 79228
new line.CTR135954 bus1=BMT167460746.1,bus2=BMT167460747.1,Phases=1,LineCode=tieSwitch1,Length=0.001,Units=km,switch=T !numEQ 79251
new line.CTR135975 bus1=BMT167459952.2,bus2=BMT171470933.2,Phases=1,LineCode=tieSwitch1,Length=0.001,Units=km,switch=T !numEQ 79224
new line.CTR135996 bus1=BMT167461025.1,bus2=BMT167461257.1,Phases=1,LineCode=tieSwitch1,Length=0.001,Units=km,switch=T !numEQ 44687
new line.CTR136003 bus1=BMT167461036.3,bus2=BMT167461154.3,Phases=1,LineCode=tieSwitch1,Length=0.001,Units=km,switch=T !numEQ 44877
new line.CTR136017 bus1=BMT167461128.2,bus2=BMT167461144.2,Phases=1,LineCode=tieSwitch1,Length=0.001,Units=km,switch=T !numEQ 44865
new line.CTR136038 bus1=BMT167461067.3,bus2=BMT167461101.3,Phases=1,LineCode=tieSwitch1,Length=0.001,Units=km,switch=T !numEQ 44864
new line.CTR136045 bus1=BMT167461091.3,bus2=BMT167461097.3,Phases=1,LineCode=tieSwitch1,Length=0.001,Units=km,switch=T !numEQ 79254
new line.CTR136059 bus1=BMT167461396.2,bus2=BMT167461397.2,Phases=1,LineCode=tieSwitch1,Length=0.001,Units=km,switch=T !numEQ 79222
new line.CTR136066 bus1=BMT167460892.2,bus2=BMT167460896.2,Phases=1,LineCode=tieSwitch1,Length=0.001,Units=km,switch=T !numEQ 44697
new line.CTR136073 bus1=BMT167460801.1.2.3,bus2=BMT167460823.1.2.3,Phases=3,LineCode=tieSwitch,Length=0.001,Units=km,switch=T !numEQ 44680
new line.CTR136080 bus1=BMT167461222.1,bus2=BMT167461226.1,Phases=1,LineCode=tieSwitch1,Length=0.001,Units=km,switch=T !numEQ 79253
new line.CTR136094 bus1=BMT167460940.1,bus2=BMT167460942.1,Phases=1,LineCode=tieSwitch1,Length=0.001,Units=km,switch=T !numEQ 46341
new line.CTR136115 bus1=BMT167453015.1.2.3,bus2=BMT167453016.1.2.3,Phases=3,LineCode=tieSwitch,Length=0.001,Units=km,switch=T !numEQ 44803
new line.CTR136136 bus1=BMT167452976.1.2.3,bus2=BMT170419081.1.2.3,Phases=3,LineCode=tieSwitch,Length=0.001,Units=km,switch=T !numEQ 44846
new line.CTR136143 bus1=BMT167452760.1.2.3,bus2=BMT167453069.1.2.3,Phases=3,LineCode=tieSwitch,Length=0.001,Units=km,switch=T !numEQ 79193
new line.CTR136150 bus1=BMT167453066.1.2.3,bus2=BMT2566151.1.2.3,Phases=3,LineCode=tieSwitch,Length=0.001,Units=km,switch=T !numEQ 44810
open line.CTR136150 term=1
new line.CTR136157 bus1=BMT167452758.1.2.3,bus2=BMT167452765.1.2.3,Phases=3,LineCode=tieSwitch,Length=0.001,Units=km,switch=T !numEQ 44817
new line.CTR136171 bus1=BMT167459010.3,bus2=BMT167459011.3,Phases=1,LineCode=tieSwitch1,Length=0.001,Units=km,switch=T !numEQ 79328
new line.CTR11249 bus1=BMT167452821.1.2.3,bus2=BMT167452935.1.2.3,Phases=3,LineCode=tieSwitch,Length=0.001,Units=km,switch=T !numEQ 44878
new line.CTR123781 bus1=BMT168684898.1.2.3,bus2=BMT168684905.1.2.3,Phases=3,LineCode=tieSwitch,Length=0.001,Units=km,switch=T !numEQ 135084
new line.CTR137424 bus1=BMT167454122.3,bus2=BMT167454228.3,Phases=1,LineCode=tieSwitch1,Length=0.001,Units=km,switch=T !numEQ 44718
new line.CTR137431 bus1=BMT167454133.3,bus2=BMT167454208.3,Phases=1,LineCode=tieSwitch1,Length=0.001,Units=km,switch=T !numEQ 47437
new line.CTR137445 bus1=BMT167454310.3,bus2=BMT167454312.3,Phases=1,LineCode=tieSwitch1,Length=0.001,Units=km,switch=T !numEQ 45844
new line.CTR138145 bus1=BMT167454065.1.2.3,bus2=BMT167454720.1.2.3,Phases=3,LineCode=tieSwitch,Length=0.001,Units=km,switch=T !numEQ 79205
new line.CTR138152 bus1=BMT167454087.2,bus2=BMT167454594.2,Phases=1,LineCode=tieSwitch1,Length=0.001,Units=km,switch=T !numEQ 47018
new line.CTR138159 bus1=BMT167454575.1.2.3,bus2=BMT167454592.1.2.3,Phases=3,LineCode=tieSwitch,Length=0.001,Units=km,switch=T !numEQ 258389
new line.CTR138166 bus1=BMT167454091.1.2.3,bus2=BMT167454097.1.2.3,Phases=3,LineCode=tieSwitch,Length=0.001,Units=km,switch=T !numEQ 47237
new line.CTR138173 bus1=BMT167454331.1.2.3,bus2=BMT167454337.1.2.3,Phases=3,LineCode=tieSwitch,Length=0.001,Units=km,switch=T !numEQ 47180
new line.CTR138180 bus1=BMT167454364.1.2.3,bus2=BMT167454372.1.2.3,Phases=3,LineCode=tieSwitch,Length=0.001,Units=km,switch=T !numEQ 47192
new line.CTR138208 bus1=BMT167454100.1,bus2=BMT167454107.1,Phases=1,LineCode=tieSwitch1,Length=0.001,Units=km,switch=T !numEQ 79283
new line.CTR138222 bus1=BMT167458577.3,bus2=BMT167459050.3,Phases=1,LineCode=tieSwitch1,Length=0.001,Units=km,switch=T !numEQ 373508
new line.CTR138229 bus1=BMT167458767.2,bus2=BMT173075211.2,Phases=1,LineCode=tieSwitch1,Length=0.001,Units=km,switch=T !numEQ 47204
new line.CTR138236 bus1=BMT167454350.1.2.3,bus2=BMT173084440.1.2.3,Phases=3,LineCode=tieSwitch,Length=0.001,Units=km,switch=T !numEQ 47191
new line.CTR138250 bus1=BMT167458560.3,bus2=BMT167459087.3,Phases=1,LineCode=tieSwitch1,Length=0.001,Units=km,switch=T !numEQ 47220
new line.CTR138264 bus1=BMT169902991.1.2.3,bus2=BMT167458631.1.2.3,Phases=3,LineCode=tieSwitch,Length=0.001,Units=km,switch=T !numEQ 47211
new line.CTR138271 bus1=BMT167458642.1.2.3,bus2=BMT167458643.1.2.3,Phases=3,LineCode=tieSwitch,Length=0.001,Units=km,switch=T !numEQ 79325
new line.CTR138285 bus1=BMT167458839.2,bus2=BMT172824951.2,Phases=1,LineCode=tieSwitch1,Length=0.001,Units=km,switch=T !numEQ 47206
new line.CTR138292 bus1=BMT167458671.3,bus2=BMT172194939.3,Phases=1,LineCode=tieSwitch1,Length=0.001,Units=km,switch=T !numEQ 311141
new line.CTR138306 bus1=BMT167459173.3,bus2=BMT167459194.3,Phases=1,LineCode=tieSwitch1,Length=0.001,Units=km,switch=T !numEQ 246937
new line.CTR138313 bus1=BMT167459224.3,bus2=BMT167459240.3,Phases=1,LineCode=tieSwitch1,Length=0.001,Units=km,switch=T !numEQ 47222
new line.CTR138327 bus1=BMT167454455.1.2.3,bus2=BMT167454461.1.2.3,Phases=3,LineCode=tieSwitch,Length=0.001,Units=km,switch=T !numEQ 277759
new line.CTR138334 bus1=BMT167459336.3,bus2=BMT167459355.3,Phases=1,LineCode=tieSwitch1,Length=0.001,Units=km,switch=T !numEQ 47227
new line.CTR138348 bus1=BMT167459457.3,bus2=BMT167459465.3,Phases=1,LineCode=tieSwitch1,Length=0.001,Units=km,switch=T !numEQ 47215
new line.CTR138355 bus1=BMT167459266.3,bus2=BMT167459267.3,Phases=1,LineCode=tieSwitch1,Length=0.001,Units=km,switch=T !numEQ 47221
new line.CTR138369 bus1=BMT167459335.3,bus2=BMT167459347.3,Phases=1,LineCode=tieSwitch1,Length=0.001,Units=km,switch=T !numEQ 47226
new line.CTR138376 bus1=BMT167454485.1.2.3,bus2=BMT167454489.1.2.3,Phases=3,LineCode=tieSwitch,Length=0.001,Units=km,switch=T !numEQ 47980
new line.CTR138383 bus1=BMT167454421.1.2.3,bus2=BMT168139935.1.2.3,Phases=3,LineCode=tieSwitch,Length=0.001,Units=km,switch=T !numEQ 79332
new line.CTR138390 bus1=BMT167454439.1.2.3,bus2=BMT167454440.1.2.3,Phases=3,LineCode=tieSwitch,Length=0.001,Units=km,switch=T !numEQ 47432
new line.CTR138404 bus1=BMT167454606.2,bus2=BMT167454611.2,Phases=1,LineCode=tieSwitch1,Length=0.001,Units=km,switch=T !numEQ 47239
new line.CTR138418 bus1=BMT167453093.1.2.3,bus2=BMT170488285.1.2.3,Phases=3,LineCode=tieSwitch,Length=0.001,Units=km,switch=T !numEQ 177062
new line.CTR138425 bus1=BMT167453122.1.2.3,bus2=BMT167453124.1.2.3,Phases=3,LineCode=tieSwitch,Length=0.001,Units=km,switch=T !numEQ 79287
new line.CTR138432 bus1=BMT167453131.1.2.3,bus2=BMT167453132.1.2.3,Phases=3,LineCode=tieSwitch,Length=0.001,Units=km,switch=T !numEQ 44849
new line.CTR138439 bus1=BMT167453152.3,bus2=BMT167453872.3,Phases=1,LineCode=tieSwitch1,Length=0.001,Units=km,switch=T !numEQ 44739
new line.CTR138446 bus1=BMT167453155.1,bus2=BMT167453859.1,Phases=1,LineCode=tieSwitch1,Length=0.001,Units=km,switch=T !numEQ 44686
new line.CTR138453 bus1=BMT167453165.1,bus2=BMT167453842.1,Phases=1,LineCode=tieSwitch1,Length=0.001,Units=km,switch=T !numEQ 47048
new line.CTR138460 bus1=BMT167453207.1,bus2=BMT167453214.1,Phases=1,LineCode=tieSwitch1,Length=0.001,Units=km,switch=T !numEQ 79294
new line.CTR138467 bus1=BMT167453180.1,bus2=BMT167453791.1,Phases=1,LineCode=tieSwitch1,Length=0.001,Units=km,switch=T !numEQ 47232
new line.CTR148778 bus1=BMT167452850.1.2.3,bus2=BMT167452874.1.2.3,Phases=3,LineCode=tieSwitch,Length=0.001,Units=km,switch=T !numEQ 79203
new line.CTR149401 bus1=BMT167453264.1,bus2=BMT167453322.1,Phases=1,LineCode=tieSwitch1,Length=0.001,Units=km,switch=T !numEQ 79344
new line.CTR150108 bus1=BMT167454365.1.2.3,bus2=BMT167454407.1.2.3,Phases=3,LineCode=tieSwitch,Length=0.001,Units=km,switch=T !numEQ 47193
new line.CTR174727 bus1=BMT167452790.1.2.3,bus2=BMT168393903.1.2.3,Phases=3,LineCode=tieSwitch,Length=0.001,Units=km,switch=T !numEQ 44824
new line.CTR175630 bus1=BMT167460142.3,bus2=BMT167460156.3,Phases=1,LineCode=tieSwitch1,Length=0.001,Units=km,switch=T !numEQ 108154
new line.CTR175637 bus1=BMT167460136.1,bus2=BMT170957205.1,Phases=1,LineCode=tieSwitch1,Length=0.001,Units=km,switch=T !numEQ 108176
new line.CTR175644 bus1=BMT171810506.2,bus2=BMT167460146.2,Phases=1,LineCode=tieSwitch1,Length=0.001,Units=km,switch=T !numEQ 175428
new line.CTR188293 bus1=BMT168685220.2,bus2=BMT168685309.2,Phases=1,LineCode=tieSwitch1,Length=0.001,Units=km,switch=T !numEQ 103908
new line.CTR188699 bus1=BMT167460292.2,bus2=BMT167460322.2,Phases=1,LineCode=tieSwitch1,Length=0.001,Units=km,switch=T !numEQ 205583
new line.CTR188958 bus1=BMT168685318.2,bus2=BMT168685323.2,Phases=1,LineCode=tieSwitch1,Length=0.001,Units=km,switch=T !numEQ 214100
new line.CTR100121 bus1=BMT167459924.1,bus2=BMT167460780.1,Phases=1,LineCode=tieSwitch1,Length=0.001,Units=km,switch=T !numEQ 172145
new line.CTR100436 bus1=BMT167452698.2,bus2=BMT167453071.2,Phases=1,LineCode=tieSwitch1,Length=0.001,Units=km,switch=T !numEQ 44870
new line.CTR11368 bus1=BMT167454380.1.2.3,bus2=BMT167454383.1.2.3,Phases=3,LineCode=tieSwitch,Length=0.001,Units=km,switch=T !numEQ 47195
new line.CTR138481 bus1=BMT167453187.1.2.3,bus2=BMT171671475.1.2.3,Phases=3,LineCode=tieSwitch,Length=0.001,Units=km,switch=T !numEQ 47604
new line.CTR138488 bus1=BMT167453761.2,bus2=BMT172176126.2,Phases=1,LineCode=tieSwitch1,Length=0.001,Units=km,switch=T !numEQ 79293
new line.CTR138495 bus1=BMT167453387.1.2.3,bus2=BMT171287528.1.2.3,Phases=3,LineCode=tieSwitch,Length=0.001,Units=km,switch=T !numEQ 44742
new line.CTR138509 bus1=BMT167453459.2,bus2=BMT167453593.2,Phases=1,LineCode=tieSwitch1,Length=0.001,Units=km,switch=T !numEQ 79301
new line.CTR138516 bus1=BMT167453600.2,bus2=BMT167453629.2,Phases=1,LineCode=tieSwitch1,Length=0.001,Units=km,switch=T !numEQ 47116
new line.CTR138530 bus1=BMT167453708.1,bus2=BMT167453745.1,Phases=1,LineCode=tieSwitch1,Length=0.001,Units=km,switch=T !numEQ 47120
new line.CTR138537 bus1=BMT167453713.1,bus2=BMT172633079.1,Phases=1,LineCode=tieSwitch1,Length=0.001,Units=km,switch=T !numEQ 306127
new line.CTR138544 bus1=BMT167453231.1,bus2=BMT167453331.1,Phases=1,LineCode=tieSwitch1,Length=0.001,Units=km,switch=T !numEQ 79341
new line.CTR138635 bus1=BMT167453128.1.2.3,bus2=BMT167454030.1.2.3,Phases=3,LineCode=tieSwitch,Length=0.001,Units=km,switch=T !numEQ 44838
new line.CTR138649 bus1=BMT167453945.1,bus2=BMT167454004.1,Phases=1,LineCode=tieSwitch1,Length=0.001,Units=km,switch=T !numEQ 310989
new line.CTR138656 bus1=BMT167453963.1,bus2=BMT167453990.1,Phases=1,LineCode=tieSwitch1,Length=0.001,Units=km,switch=T !numEQ 309768
new line.CTR138663 bus1=BMT167458489.2,bus2=BMT167459808.2,Phases=1,LineCode=tieSwitch1,Length=0.001,Units=km,switch=T !numEQ 291346
new line.CTR138670 bus1=BMT167459510.2,bus2=BMT167459778.2,Phases=1,LineCode=tieSwitch1,Length=0.001,Units=km,switch=T !numEQ 44858
new line.CTR138677 bus1=BMT167459516.3,bus2=BMT167459767.3,Phases=1,LineCode=tieSwitch1,Length=0.001,Units=km,switch=T !numEQ 44674
new line.CTR138691 bus1=BMT167459548.2,bus2=BMT167459552.2,Phases=1,LineCode=tieSwitch1,Length=0.001,Units=km,switch=T !numEQ 44753
new line.CTR138698 bus1=BMT167459635.1,bus2=BMT167459652.1,Phases=1,LineCode=tieSwitch1,Length=0.001,Units=km,switch=T !numEQ 298069
new line.CTR139097 bus1=BMT167461346.3,bus2=BMT167461348.3,Phases=1,LineCode=tieSwitch1,Length=0.001,Units=km,switch=T !numEQ 44868
new line.CTR139545 bus1=BMT167452954.1.2.3,bus2=BMT169855079.1.2.3,Phases=3,LineCode=tieSwitch,Length=0.001,Units=km,switch=T !numEQ 44806
new line.CTR1561 bus1=BMT167454068.1.2.3,bus2=BMT167454636.1.2.3,Phases=3,LineCode=tieSwitch,Length=0.001,Units=km,switch=T !numEQ 315125
new line.CTR156366 bus1=BMT171269754.1.2.3,bus2=BMT171270180.1.2.3,Phases=3,LineCode=tieSwitch,Length=0.001,Units=km,switch=T !numEQ 46093
new line.CTR156527 bus1=BMT167454681.2,bus2=BMT167454690.2,Phases=1,LineCode=tieSwitch1,Length=0.001,Units=km,switch=T !numEQ 103888
new line.CTR157199 bus1=BMT167786809.1.2.3,bus2=BMT167828133.1.2.3,Phases=3,LineCode=tieSwitch,Length=0.001,Units=km,switch=T !numEQ 208150
new line.CTR157206 bus1=BMT173088568.1.2.3,bus2=BMT173087854.1.2.3,Phases=3,LineCode=tieSwitch,Length=0.001,Units=km,switch=T !numEQ 207626
open line.CTR157206 term=1
new line.CTR169484 bus1=BMT167454628.2,bus2=BMT167454629.2,Phases=1,LineCode=tieSwitch1,Length=0.001,Units=km,switch=T !numEQ 172917
new line.CTR170107 bus1=BMT167459869.1.2.3,bus2=BMT167768618.1.2.3,Phases=3,LineCode=tieSwitch,Length=0.001,Units=km,switch=T !numEQ 174406
new line.CTR186522 bus1=BMT167458660.1,bus2=BMT172086868.1,Phases=1,LineCode=tieSwitch1,Length=0.001,Units=km,switch=T !numEQ 79327
new line.CTR186536 bus1=BMT168466502.3,bus2=BMT167460653.3,Phases=1,LineCode=tieSwitch1,Length=0.001,Units=km,switch=T !numEQ 172918
new line.CTR198772 bus1=BMT168139957.1.2.3,bus2=BMT167454397.1.2.3,Phases=3,LineCode=tieSwitch,Length=0.001,Units=km,switch=T !numEQ 207625
open line.CTR198772 term=1
new line.CTR199290 bus1=BMT167453806.2,bus2=BMT167453809.2,Phases=1,LineCode=tieSwitch1,Length=0.001,Units=km,switch=T !numEQ 223426
new line.CTR356754 bus1=BMT167453470.2,bus2=BMT167453476.2,Phases=1,LineCode=tieSwitch1,Length=0.001,Units=km,switch=T !numEQ 287382
new line.CTR382374 bus1=BMT167459298.3,bus2=BMT167459299.3,Phases=1,LineCode=tieSwitch1,Length=0.001,Units=km,switch=T !numEQ 171987
new line.CTR409513 bus1=BMT167454543.1.2.3,bus2=BMT167454544.1.2.3,Phases=3,LineCode=tieSwitch,Length=0.001,Units=km,switch=T !numEQ 304146
new line.CTR410129 bus1=BMT167454595.2,bus2=BMT167454596.2,Phases=1,LineCode=tieSwitch1,Length=0.001,Units=km,switch=T !numEQ 287360
new line.CTR433250 bus1=BMT167768165.1.2.3,bus2=BMT167768167.1.2.3,Phases=3,LineCode=tieSwitch,Length=0.001,Units=km,switch=T !numEQ 309591
new line.CTR433845 bus1=BMT167454503.1,bus2=BMT167454504.1,Phases=1,LineCode=tieSwitch1,Length=0.001,Units=km,switch=T !numEQ 306237
new line.CTR461754 bus1=BMT167460111.1.2.3,bus2=BMT167460195.1.2.3,Phases=3,LineCode=tieSwitch,Length=0.001,Units=km,switch=T !numEQ 316275
new line.CTR49525 bus1=BMT168684933.1.2.3,bus2=BMT170125151.1.2.3,Phases=3,LineCode=tieSwitch,Length=0.001,Units=km,switch=T !numEQ 79368
new line.CTR49532 bus1=BMT168684924.1.2.3,bus2=BMT171285137.1.2.3,Phases=3,LineCode=tieSwitch,Length=0.001,Units=km,switch=T !numEQ 44872
new line.CTR49546 bus1=BMT167453039.1.2.3,bus2=BMT167453051.1.2.3,Phases=3,LineCode=tieSwitch,Length=0.001,Units=km,switch=T !numEQ 307954
new line.CTR49567 bus1=BMT167452800.1.2.3,bus2=BMT167452802.1.2.3,Phases=3,LineCode=tieSwitch,Length=0.001,Units=km,switch=T !numEQ 44826
new line.CTR49574 bus1=BMT167452808.1.2.3,bus2=BMT167452820.1.2.3,Phases=3,LineCode=tieSwitch,Length=0.001,Units=km,switch=T !numEQ 44830
new line.CTR49581 bus1=BMT167452823.1.2.3,bus2=BMT167452831.1.2.3,Phases=3,LineCode=tieSwitch,Length=0.001,Units=km,switch=T !numEQ 44840
new line.CTR49588 bus1=BMT167452830.1.2.3,bus2=BMT167452844.1.2.3,Phases=3,LineCode=tieSwitch,Length=0.001,Units=km,switch=T !numEQ 232076
new line.CTR49602 bus1=BMT167452859.1.2.3,bus2=BMT167452860.1.2.3,Phases=3,LineCode=tieSwitch,Length=0.001,Units=km,switch=T !numEQ 44832
open line.CTR49602 term=1
new line.CTR49616 bus1=BMT167461030.1,bus2=BMT167461166.1,Phases=1,LineCode=tieSwitch1,Length=0.001,Units=km,switch=T !numEQ 44752
new line.CTR49623 bus1=BMT167461046.3,bus2=BMT167461106.3,Phases=1,LineCode=tieSwitch1,Length=0.001,Units=km,switch=T !numEQ 44754
new line.CTR49630 bus1=BMT167461052.1.2.3,bus2=BMT167461065.1.2.3,Phases=3,LineCode=tieSwitch,Length=0.001,Units=km,switch=T !numEQ 44694
new line.CTR49651 bus1=BMT169241254.2,bus2=BMT167461063.2,Phases=1,LineCode=tieSwitch1,Length=0.001,Units=km,switch=T !numEQ 44712
open line.CTR49651 term=1
new line.CTR49658 bus1=BMT167461178.1,bus2=BMT167461239.1,Phases=1,LineCode=tieSwitch1,Length=0.001,Units=km,switch=T !numEQ 44734
new line.CTR49665 bus1=BMT167461177.1,bus2=BMT167461179.1,Phases=1,LineCode=tieSwitch1,Length=0.001,Units=km,switch=T !numEQ 44733
new line.CTR49672 bus1=BMT167461208.1,bus2=BMT167461214.1,Phases=1,LineCode=tieSwitch1,Length=0.001,Units=km,switch=T !numEQ 44691
new line.CTR49679 bus1=BMT167461206.1,bus2=BMT167461210.1,Phases=1,LineCode=tieSwitch1,Length=0.001,Units=km,switch=T !numEQ 79255
new line.CTR49686 bus1=BMT167460928.1,bus2=BMT167460995.1,Phases=1,LineCode=tieSwitch1,Length=0.001,Units=km,switch=T !numEQ 44731
new line.CTR49693 bus1=BMT167460929.1,bus2=BMT167460931.1,Phases=1,LineCode=tieSwitch1,Length=0.001,Units=km,switch=T !numEQ 44690
new line.CTR49707 bus1=BMT167460826.1,bus2=BMT167460832.1,Phases=1,LineCode=tieSwitch1,Length=0.001,Units=km,switch=T !numEQ 79257
new line.CTR49721 bus1=BMT167461379.1.2.3,bus2=BMT167461420.1.2.3,Phases=3,LineCode=tieSwitch,Length=0.001,Units=km,switch=T !numEQ 79214
new line.CTR49728 bus1=BMT167461426.1.2.3,bus2=BMT167461427.1.2.3,Phases=3,LineCode=tieSwitch,Length=0.001,Units=km,switch=T !numEQ 79219
new line.CTR49735 bus1=BMT167452697.1.2.3,bus2=BMT172720740.1.2.3,Phases=3,LineCode=tieSwitch,Length=0.001,Units=km,switch=T !numEQ 44801
new line.CTR49749 bus1=BMT167453025.1.2.3,bus2=BMT3015425.1.2.3,Phases=3,LineCode=tieSwitch,Length=0.001,Units=km,switch=T !numEQ 135464
open line.CTR49749 term=1
new line.CTR49777 bus1=BMT167460579.2,bus2=BMT167460598.2,Phases=1,LineCode=tieSwitch1,Length=0.001,Units=km,switch=T !numEQ 79229
new line.CTR49784 bus1=BMT167460587.1.2.3,bus2=BMT167460588.1.2.3,Phases=3,LineCode=tieSwitch,Length=0.001,Units=km,switch=T !numEQ 79231
new line.CTR49791 bus1=BMT167459965.1,bus2=BMT167459973.1,Phases=1,LineCode=tieSwitch1,Length=0.001,Units=km,switch=T !numEQ 79226
new line.CTR49798 bus1=BMT167460876.2,bus2=BMT172440269.2,Phases=1,LineCode=tieSwitch1,Length=0.001,Units=km,switch=T !numEQ 44729
new line.CTR49812 bus1=BMT167460715.3,bus2=BMT172677203.3,Phases=1,LineCode=tieSwitch1,Length=0.001,Units=km,switch=T !numEQ 310976
new line.CTR49819 bus1=BMT167460635.3,bus2=BMT168466491.3,Phases=1,LineCode=tieSwitch1,Length=0.001,Units=km,switch=T !numEQ 310974
new line.CTR49847 bus1=BMT167459915.3,bus2=BMT167461368.3,Phases=1,LineCode=tieSwitch1,Length=0.001,Units=km,switch=T !numEQ 44726
new line.CTR49861 bus1=BMT167461322.3,bus2=BMT167461324.3,Phases=1,LineCode=tieSwitch1,Length=0.001,Units=km,switch=T !numEQ 47194
new line.CTR49868 bus1=BMT167460867.3,bus2=BMT167461275.3,Phases=1,LineCode=tieSwitch1,Length=0.001,Units=km,switch=T !numEQ 44692
new line.CTR49875 bus1=BMT167461022.3,bus2=BMT167461261.3,Phases=1,LineCode=tieSwitch1,Length=0.001,Units=km,switch=T !numEQ 44685
new line.CTR49882 bus1=BMT168685191.2,bus2=BMT168685211.2,Phases=1,LineCode=tieSwitch1,Length=0.001,Units=km,switch=T !numEQ 79268
new line.CTR49889 bus1=BMT167461021.3,bus2=BMT167461270.3,Phases=1,LineCode=tieSwitch1,Length=0.001,Units=km,switch=T !numEQ 44867
new line.CTR49896 bus1=BMT168685338.2,bus2=BMT168685344.2,Phases=1,LineCode=tieSwitch1,Length=0.001,Units=km,switch=T !numEQ 44671
new line.CTR49903 bus1=BMT168685075.1.2.3,bus2=BMT168685080.1.2.3,Phases=3,LineCode=tieSwitch,Length=0.001,Units=km,switch=T !numEQ 79260
new line.CTR49910 bus1=BMT167461453.1.2.3,bus2=BMT167461466.1.2.3,Phases=3,LineCode=tieSwitch,Length=0.001,Units=km,switch=T !numEQ 79208
new line.CTR49917 bus1=BMT167461446.1.2.3,bus2=BMT167461447.1.2.3,Phases=3,LineCode=tieSwitch,Length=0.001,Units=km,switch=T !numEQ 79207
new line.CTR49924 bus1=BMT168685219.2,bus2=BMT168685312.2,Phases=1,LineCode=tieSwitch1,Length=0.001,Units=km,switch=T !numEQ 44673
new line.CTR49931 bus1=BMT167461344.3,bus2=BMT167461357.3,Phases=1,LineCode=tieSwitch1,Length=0.001,Units=km,switch=T !numEQ 44760
new line.CTR49938 bus1=BMT167461340.3,bus2=BMT167461362.3,Phases=1,LineCode=tieSwitch1,Length=0.001,Units=km,switch=T !numEQ 44696
new line.CTR49952 bus1=BMT167459877.1.2.3,bus2=BMT167459878.1.2.3,Phases=3,LineCode=tieSwitch,Length=0.001,Units=km,switch=T !numEQ 79220
new line.CTR49959 bus1=BMT167459897.1.2.3,bus2=BMT167461376.1.2.3,Phases=3,LineCode=tieSwitch,Length=0.001,Units=km,switch=T !numEQ 44828
new line.CTR49966 bus1=BMT167459938.2,bus2=BMT167460761.2,Phases=1,LineCode=tieSwitch1,Length=0.001,Units=km,switch=T !numEQ 79374
new line.CTR49973 bus1=BMT167459948.3,bus2=BMT167460608.3,Phases=1,LineCode=tieSwitch1,Length=0.001,Units=km,switch=T !numEQ 79227
new line.CTR49980 bus1=BMT167459964.1.2.3,bus2=BMT167460575.1.2.3,Phases=3,LineCode=tieSwitch,Length=0.001,Units=km,switch=T !numEQ 44716
new line.CTR50001 bus1=BMT167460006.2,bus2=BMT167460398.2,Phases=1,LineCode=tieSwitch1,Length=0.001,Units=km,switch=T !numEQ 79239
new line.CTR50015 bus1=BMT167459941.1.2.3,bus2=BMT167460757.1.2.3,Phases=3,LineCode=tieSwitch,Length=0.001,Units=km,switch=T !numEQ 79305
new line.CTR50022 bus1=BMT167460281.2,bus2=BMT167460288.2,Phases=1,LineCode=tieSwitch1,Length=0.001,Units=km,switch=T !numEQ 44710
new line.CTR50029 bus1=BMT167460341.2,bus2=BMT167460358.2,Phases=1,LineCode=tieSwitch1,Length=0.001,Units=km,switch=T !numEQ 47231
new line.CTR50036 bus1=BMT167460283.1.2.3,bus2=BMT167460386.1.2.3,Phases=3,LineCode=tieSwitch,Length=0.001,Units=km,switch=T !numEQ 79242
new line.CTR50043 bus1=BMT167460010.1,bus2=BMT167460241.1,Phases=1,LineCode=tieSwitch1,Length=0.001,Units=km,switch=T !numEQ 79336
new line.CTR5355 bus1=BMT167459244.3,bus2=BMT167459260.3,Phases=1,LineCode=tieSwitch1,Length=0.001,Units=km,switch=T !numEQ 79321
new line.CTR5355497 bus1=BMT2005355514.1.2.3,bus2=BMT2005355498.1.2.3,Phases=3,LineCode=tieSwitch,Length=0.001,Units=km,switch=T !numEQ 
new line.CTR5355513 bus1=BMT2389066667.1.2.3,bus2=BMT2005355514.1.2.3,Phases=3,LineCode=tieSwitch,Length=0.001,Units=km,switch=T !numEQ 
new line.CTR5355527 bus1=BMT2005355443.1.2.3,bus2=BMT2389066667.1.2.3,Phases=3,LineCode=tieSwitch,Length=0.001,Units=km,switch=T !numEQ 
new line.CTR5355787 bus1=BMT2005355788.1.2.3,bus2=BMT2389066666.1.2.3,Phases=3,LineCode=tieSwitch,Length=0.001,Units=km,switch=T !numEQ 
new line.CTR5355801 bus1=BMT2005355802.1.2.3,bus2=BMT2389066668.1.2.3,Phases=3,LineCode=tieSwitch,Length=0.001,Units=km,switch=T !numEQ 
new line.CTR5355815 bus1=BMT2005355816.1.2.3,bus2=BMT2389066670.1.2.3,Phases=3,LineCode=tieSwitch,Length=0.001,Units=km,switch=T !numEQ 
new line.CTR5355829 bus1=BMT2389066669.1.2.3,bus2=BMT2005355830.1.2.3,Phases=3,LineCode=tieSwitch,Length=0.001,Units=km,switch=T !numEQ 
new line.CTR5355843 bus1=BMT2389066666.1.2.3,bus2=BMT2005355640.1.2.3,Phases=3,LineCode=tieSwitch,Length=0.001,Units=km,switch=T !numEQ 
new line.CTR5355855 bus1=BMT2389066668.1.2.3,bus2=BMT2005355648.1.2.3,Phases=3,LineCode=tieSwitch,Length=0.001,Units=km,switch=T !numEQ 
new line.CTR122780 bus1=BMT167453410.1,bus2=BMT167453415.1,Phases=1,LineCode=tieSwitch1,Length=0.001,Units=km,switch=T !numEQ 172246
new line.CTR133756 bus1=BMT167453288.3,bus2=BMT167453297.3,Phases=1,LineCode=tieSwitch1,Length=0.001,Units=km,switch=T !numEQ 108192
new line.CTR133924 bus1=BMT167460032.1,bus2=BMT167460103.1,Phases=1,LineCode=tieSwitch1,Length=0.001,Units=km,switch=T !numEQ 79666
new line.CTR133931 bus1=BMT167460106.1,bus2=BMT167460197.1,Phases=1,LineCode=tieSwitch1,Length=0.001,Units=km,switch=T !numEQ 79671
new line.CTR133938 bus1=BMT169975622.1.2.3,bus2=BMT167460027.1.2.3,Phases=3,LineCode=tieSwitch,Length=0.001,Units=km,switch=T !numEQ 79668
new line.CTR133952 bus1=BMT167460059.1.2.3,bus2=BMT167460088.1.2.3,Phases=3,LineCode=tieSwitch,Length=0.001,Units=km,switch=T !numEQ 79682
new line.CTR134771 bus1=BMT168685188.2,bus2=BMT168685331.2,Phases=1,LineCode=tieSwitch1,Length=0.001,Units=km,switch=T !numEQ 79270
new line.CTR147469 bus1=BMT167453115.1.2.3,bus2=BMT167453118.1.2.3,Phases=3,LineCode=tieSwitch,Length=0.001,Units=km,switch=T !numEQ 44850
new line.CTR147798 bus1=BMT167452707.1.2.3,bus2=BMT167452755.1.2.3,Phases=3,LineCode=tieSwitch,Length=0.001,Units=km,switch=T !numEQ 44802
new line.CTR148701 bus1=BMT167460179.1,bus2=BMT167460184.1,Phases=1,LineCode=tieSwitch1,Length=0.001,Units=km,switch=T !numEQ 106139
new line.CTR160706 bus1=BMT167459660.1,bus2=BMT167459662.1,Phases=1,LineCode=tieSwitch1,Length=0.001,Units=km,switch=T !numEQ 110141
new line.CTR160804 bus1=BMT167458562.1.2.3,bus2=BMT167458565.1.2.3,Phases=3,LineCode=tieSwitch,Length=0.001,Units=km,switch=T !numEQ 103668
new line.CTR162085 bus1=BMT167459535.1.2.3,bus2=BMT167459729.1.2.3,Phases=3,LineCode=tieSwitch,Length=0.001,Units=km,switch=T !numEQ 47530
new line.CTR162099 bus1=BMT167453174.2,bus2=BMT167453812.2,Phases=1,LineCode=tieSwitch1,Length=0.001,Units=km,switch=T !numEQ 45764
new line.CTR176925 bus1=BMT167458687.3,bus2=BMT167531031.3,Phases=1,LineCode=tieSwitch1,Length=0.001,Units=km,switch=T !numEQ 173653
new line.CTR192381 bus1=BMT167461430.1.2.3,bus2=BMT167461431.1.2.3,Phases=3,LineCode=tieSwitch,Length=0.001,Units=km,switch=T !numEQ 226617
new line.CTR192388 bus1=BMT167459862.1.2.3,bus2=BMT167461429.1.2.3,Phases=3,LineCode=tieSwitch,Length=0.001,Units=km,switch=T !numEQ 226612
new line.CTR28364 bus1=BMT167452992.1.2.3,bus2=BMT167452993.1.2.3,Phases=3,LineCode=tieSwitch,Length=0.001,Units=km,switch=T !numEQ 120782
new line.CTR337350 bus1=BMT167460937.1,bus2=BMT167460987.1,Phases=1,LineCode=tieSwitch1,Length=0.001,Units=km,switch=T !numEQ 221706
new line.CTR338260 bus1=BMT167460188.1,bus2=BMT167460191.1,Phases=1,LineCode=tieSwitch1,Length=0.001,Units=km,switch=T !numEQ 228701
new line.CTR338533 bus1=BMT167458778.2,bus2=BMT167458977.2,Phases=1,LineCode=tieSwitch1,Length=0.001,Units=km,switch=T !numEQ 282303
new line.CTR339982 bus1=BMT167459170.3,bus2=BMT167459320.3,Phases=1,LineCode=tieSwitch1,Length=0.001,Units=km,switch=T !numEQ 221556
new line.CTR368430 bus1=BMT167454382.1.2.3,bus2=BMT168139953.1.2.3,Phases=3,LineCode=tieSwitch,Length=0.001,Units=km,switch=T !numEQ 232194
new line.CTR39634 bus1=BMT168685138.1,bus2=BMT168685364.1,Phases=1,LineCode=tieSwitch1,Length=0.001,Units=km,switch=T !numEQ 172065
new line.CTR397312 bus1=BMT170510298.1,bus2=BMT167458531.1,Phases=1,LineCode=tieSwitch1,Length=0.001,Units=km,switch=T !numEQ 291332
new line.CTR397326 bus1=BMT170510301.1.2.3,bus2=BMT167454341.1.2.3,Phases=3,LineCode=tieSwitch,Length=0.001,Units=km,switch=T !numEQ 291333
open line.CTR397326 term=1
new line.CTR423184 bus1=BMT167453247.2,bus2=BMT167453248.2,Phases=1,LineCode=tieSwitch1,Length=0.001,Units=km,switch=T !numEQ 306209
new line.CTR448874 bus1=BMT167458504.2,bus2=BMT167538219.2,Phases=1,LineCode=tieSwitch1,Length=0.001,Units=km,switch=T !numEQ 291350
new line.CTR448902 bus1=BMT167458517.1,bus2=BMT167521726.1,Phases=1,LineCode=tieSwitch1,Length=0.001,Units=km,switch=T !numEQ 291351
new line.CTR47572 bus1=BMT167454077.1.2.3,bus2=BMT167454633.1.2.3,Phases=3,LineCode=tieSwitch,Length=0.001,Units=km,switch=T !numEQ 79206
new line.CTR51345 bus1=BMT167459453.3,bus2=BMT167459482.3,Phases=1,LineCode=tieSwitch1,Length=0.001,Units=km,switch=T !numEQ 47214
new line.CTR51366 bus1=BMT167459330.3,bus2=BMT172629105.3,Phases=1,LineCode=tieSwitch1,Length=0.001,Units=km,switch=T !numEQ 47225
new line.CTR51380 bus1=BMT167454434.1.2.3,bus2=BMT167454442.1.2.3,Phases=3,LineCode=tieSwitch,Length=0.001,Units=km,switch=T !numEQ 79333
new line.CTR51394 bus1=BMT167454370.1.2.3,bus2=BMT169642585.1.2.3,Phases=3,LineCode=tieSwitch,Length=0.001,Units=km,switch=T !numEQ 317597
new line.CTR51401 bus1=BMT167454465.1.2.3,bus2=BMT167454467.1.2.3,Phases=3,LineCode=tieSwitch,Length=0.001,Units=km,switch=T !numEQ 47404
new line.CTR51408 bus1=BMT167454099.3,bus2=BMT167454103.3,Phases=1,LineCode=tieSwitch1,Length=0.001,Units=km,switch=T !numEQ 47659
new line.CTR51422 bus1=BMT167454643.1,bus2=BMT167454714.1,Phases=1,LineCode=tieSwitch1,Length=0.001,Units=km,switch=T !numEQ 44720
new line.CTR51429 bus1=BMT167453085.1.2.3,bus2=BMT167453090.1.2.3,Phases=3,LineCode=tieSwitch,Length=0.001,Units=km,switch=T !numEQ 47353
new line.CTR51443 bus1=BMT167453130.1.2.3,bus2=BMT172771548.1.2.3,Phases=3,LineCode=tieSwitch,Length=0.001,Units=km,switch=T !numEQ 44839
new line.CTR51450 bus1=BMT167453138.1.2.3,bus2=BMT167454010.1.2.3,Phases=3,LineCode=tieSwitch,Length=0.001,Units=km,switch=T !numEQ 79288
new line.CTR51457 bus1=BMT167453140.1.2.3,bus2=BMT167453905.1.2.3,Phases=3,LineCode=tieSwitch,Length=0.001,Units=km,switch=T !numEQ 310996
new line.CTR51471 bus1=BMT167453156.1,bus2=BMT167453851.1,Phases=1,LineCode=tieSwitch1,Length=0.001,Units=km,switch=T !numEQ 79371
new line.CTR51478 bus1=BMT167458579.1,bus2=BMT167459028.1,Phases=1,LineCode=tieSwitch1,Length=0.001,Units=km,switch=T !numEQ 47218
new line.CTR51513 bus1=BMT167458625.2,bus2=BMT167458645.2,Phases=1,LineCode=tieSwitch1,Length=0.001,Units=km,switch=T !numEQ 47212
new line.CTR51541 bus1=BMT167458933.2,bus2=BMT167458960.2,Phases=1,LineCode=tieSwitch1,Length=0.001,Units=km,switch=T !numEQ 47203
new line.CTR51548 bus1=BMT167458946.2,bus2=BMT167458954.2,Phases=1,LineCode=tieSwitch1,Length=0.001,Units=km,switch=T !numEQ 79331
new line.CTR51562 bus1=BMT167459062.3,bus2=BMT167459070.3,Phases=1,LineCode=tieSwitch1,Length=0.001,Units=km,switch=T !numEQ 47216
new line.CTR51583 bus1=BMT167459154.3,bus2=BMT167459164.3,Phases=1,LineCode=tieSwitch1,Length=0.001,Units=km,switch=T !numEQ 246936
new line.CTR51590 bus1=BMT167459198.3,bus2=BMT167459205.3,Phases=1,LineCode=tieSwitch1,Length=0.001,Units=km,switch=T !numEQ 250058
new line.CTR152950 bus1=BMT167459529.3,bus2=BMT167459757.3,Phases=1,LineCode=tieSwitch1,Length=0.001,Units=km,switch=T !numEQ 79303
new line.CTR152964 bus1=BMT167458666.2,bus2=BMT167458737.2,Phases=1,LineCode=tieSwitch1,Length=0.001,Units=km,switch=T !numEQ 302691
new line.CTR15365 bus1=BMT167461384.1.2.3,bus2=BMT167461403.1.2.3,Phases=3,LineCode=tieSwitch,Length=0.001,Units=km,switch=T !numEQ 174262
new line.CTR165193 bus1=BMT167459357.3,bus2=BMT167459360.3,Phases=1,LineCode=tieSwitch1,Length=0.001,Units=km,switch=T !numEQ 47228
new line.CTR165592 bus1=BMT167460444.2,bus2=BMT167460449.2,Phases=1,LineCode=tieSwitch1,Length=0.001,Units=km,switch=T !numEQ 174503
new line.CTR179361 bus1=BMT167453392.1,bus2=BMT167453418.1,Phases=1,LineCode=tieSwitch1,Length=0.001,Units=km,switch=T !numEQ 44747
new line.CTR179725 bus1=BMT167459936.3,bus2=BMT167460763.3,Phases=1,LineCode=tieSwitch1,Length=0.001,Units=km,switch=T !numEQ 46313
new line.CTR180460 bus1=BMT168685314.2,bus2=BMT169380979.2,Phases=1,LineCode=tieSwitch1,Length=0.001,Units=km,switch=T !numEQ 103884
new line.CTR181076 bus1=BMT167461307.1,bus2=BMT167461309.1,Phases=1,LineCode=tieSwitch1,Length=0.001,Units=km,switch=T !numEQ 171944
new line.CTR196651 bus1=BMT167460932.1,bus2=BMT167460991.1,Phases=1,LineCode=tieSwitch1,Length=0.001,Units=km,switch=T !numEQ 228807
new line.CTR196819 bus1=BMT167461194.1,bus2=BMT167461237.1,Phases=1,LineCode=tieSwitch1,Length=0.001,Units=km,switch=T !numEQ 230504
new line.CTR25011 bus1=BMT167453488.2,bus2=BMT167453501.2,Phases=1,LineCode=tieSwitch1,Length=0.001,Units=km,switch=T !numEQ 110153
new line.CTR27258 bus1=BMT167452851.1.2.3,bus2=BMT167452852.1.2.3,Phases=3,LineCode=tieSwitch,Length=0.001,Units=km,switch=T !numEQ 79199
new line.CTR34804 bus1=BMT167460115.1.2.3,bus2=BMT171810484.1.2.3,Phases=3,LineCode=tieSwitch,Length=0.001,Units=km,switch=T !numEQ 47723
new line.CTR40516 bus1=BMT167453483.2,bus2=BMT167453567.2,Phases=1,LineCode=tieSwitch1,Length=0.001,Units=km,switch=T !numEQ 103612
new line.CTR407252 bus1=BMT167452913.1.2.3,bus2=BMT167452915.1.2.3,Phases=3,LineCode=tieSwitch,Length=0.001,Units=km,switch=T !numEQ 301808
new line.CTR430471 bus1=BMT167458436.1.2.3,bus2=BMT167458438.1.2.3,Phases=3,LineCode=tieSwitch,Length=0.001,Units=km,switch=T !numEQ 214067
new line.CTR430513 bus1=BMT167458437.1.2.3,bus2=BMT167768163.1.2.3,Phases=3,LineCode=tieSwitch,Length=0.001,Units=km,switch=T !numEQ 315101
new line.CTR459220 bus1=BMT167458615.1.2.3,bus2=BMT167458657.1.2.3,Phases=3,LineCode=tieSwitch,Length=0.001,Units=km,switch=T !numEQ 311139
new line.CTR459234 bus1=BMT167458663.1.2.3,bus2=BMT167458664.1.2.3,Phases=3,LineCode=tieSwitch,Length=0.001,Units=km,switch=T !numEQ 298074
new line.CTR460088 bus1=BMT167459124.3,bus2=BMT167459137.3,Phases=1,LineCode=tieSwitch1,Length=0.001,Units=km,switch=T !numEQ 311162
new line.CTR460095 bus1=BMT167459139.3,bus2=BMT171883102.3,Phases=1,LineCode=tieSwitch1,Length=0.001,Units=km,switch=T !numEQ 311161
new line.CTR460102 bus1=BMT167459142.3,bus2=BMT167459405.3,Phases=1,LineCode=tieSwitch1,Length=0.001,Units=km,switch=T !numEQ 311150
new line.CTR4606 bus1=BMT167454479.1.2.3,bus2=BMT167454550.1.2.3,Phases=3,LineCode=tieSwitch,Length=0.001,Units=km,switch=T !numEQ 312520
new line.CTR49322 bus1=BMT167452883.1.2.3,bus2=BMT167452885.1.2.3,Phases=3,LineCode=tieSwitch,Length=0.001,Units=km,switch=T !numEQ 79337
new line.CTR49336 bus1=BMT167452805.1.2.3,bus2=BMT167452809.1.2.3,Phases=3,LineCode=tieSwitch,Length=0.001,Units=km,switch=T !numEQ 44841
new line.CTR49343 bus1=BMT167452939.1.2.3,bus2=BMT167452946.1.2.3,Phases=3,LineCode=tieSwitch,Length=0.001,Units=km,switch=T !numEQ 79197
new line.CTR49350 bus1=BMT167452768.1.2.3,bus2=BMT167452775.1.2.3,Phases=3,LineCode=tieSwitch,Length=0.001,Units=km,switch=T !numEQ 44683
new line.CTR49364 bus1=BMT167458431.1.2.3,bus2=BMT170183867.1.2.3,Phases=3,LineCode=tieSwitch,Length=0.001,Units=km,switch=T !numEQ 44681
new line.CTR49371 bus1=BMT167458440.1.2.3,bus2=BMT167458443.1.2.3,Phases=3,LineCode=tieSwitch,Length=0.001,Units=km,switch=T !numEQ 79201
new line.CTR49469 bus1=BMT167452979.1.2.3,bus2=BMT167452984.1.2.3,Phases=3,LineCode=tieSwitch,Length=0.001,Units=km,switch=T !numEQ 232078
new line.CTR49476 bus1=BMT167453012.1.2.3,bus2=BMT170416316.1.2.3,Phases=3,LineCode=tieSwitch,Length=0.001,Units=km,switch=T !numEQ 44804
new line.CTR49483 bus1=BMT167452771.1.2.3,bus2=BMT167453057.1.2.3,Phases=3,LineCode=tieSwitch,Length=0.001,Units=km,switch=T !numEQ 79204
new line.CTR52983 bus1=BMT167460276.2,bus2=BMT167460388.2,Phases=1,LineCode=tieSwitch1,Length=0.001,Units=km,switch=T !numEQ 239144
new line.CTR53200 bus1=BMT167459538.1.2.3,bus2=BMT167459545.1.2.3,Phases=3,LineCode=tieSwitch,Length=0.001,Units=km,switch=T !numEQ 44757
new line.CTR53214 bus1=BMT167459634.1,bus2=BMT167459687.1,Phases=1,LineCode=tieSwitch1,Length=0.001,Units=km,switch=T !numEQ 47369
new line.CTR53361 bus1=BMT167453535.2,bus2=BMT167453542.2,Phases=1,LineCode=tieSwitch1,Length=0.001,Units=km,switch=T !numEQ 47157
new line.CTR53417 bus1=BMT167453796.2,bus2=BMT167453798.2,Phases=1,LineCode=tieSwitch1,Length=0.001,Units=km,switch=T !numEQ 44741
new line.CTR53431 bus1=BMT167453962.1,bus2=BMT167454000.1,Phases=1,LineCode=tieSwitch1,Length=0.001,Units=km,switch=T !numEQ 309755
new line.CTR53452 bus1=BMT167458485.3,bus2=BMT167459826.3,Phases=1,LineCode=tieSwitch1,Length=0.001,Units=km,switch=T !numEQ 291344
new line.CTR53466 bus1=BMT167459791.2,bus2=BMT167459800.2,Phases=1,LineCode=tieSwitch1,Length=0.001,Units=km,switch=T !numEQ 47081
new line.CTR53473 bus1=BMT167459523.1,bus2=BMT167459763.1,Phases=1,LineCode=tieSwitch1,Length=0.001,Units=km,switch=T !numEQ 47089
new line.CTR53494 bus1=BMT167453170.3,bus2=BMT167453827.3,Phases=1,LineCode=tieSwitch1,Length=0.001,Units=km,switch=T !numEQ 47595
new line.CTR53508 bus1=BMT167453178.1,bus2=BMT167453192.1,Phases=1,LineCode=tieSwitch1,Length=0.001,Units=km,switch=T !numEQ 79373
new line.CTR53515 bus1=BMT167453181.3,bus2=BMT167453785.3,Phases=1,LineCode=tieSwitch1,Length=0.001,Units=km,switch=T !numEQ 79292
new line.CTR53522 bus1=BMT167453222.1.2.3,bus2=BMT167453362.1.2.3,Phases=3,LineCode=tieSwitch,Length=0.001,Units=km,switch=T !numEQ 44713
new line.CTR68390 bus1=BMT167460583.2,bus2=BMT167460590.2,Phases=1,LineCode=tieSwitch1,Length=0.001,Units=km,switch=T !numEQ 79230
new line.CTR68747 bus1=BMT167452764.1.2.3,bus2=BMT167453062.1.2.3,Phases=3,LineCode=tieSwitch,Length=0.001,Units=km,switch=T !numEQ 79194
new line.CTR79191 bus1=BMT167459327.3,bus2=BMT167459399.3,Phases=1,LineCode=tieSwitch1,Length=0.001,Units=km,switch=T !numEQ 173617
new line.CTR103488 bus1=BMT168685435.1.2.3,bus2=BMT168685450.1.2.3,Phases=3,LineCode=tieSwitch,Length=0.001,Units=km,switch=T !numEQ 116890
new line.CTR103495 bus1=BMT167453463.2,bus2=BMT167938656.2,Phases=1,LineCode=tieSwitch1,Length=0.001,Units=km,switch=T !numEQ 44879
new line.CTR116298 bus1=BMT167453509.2,bus2=BMT167453556.2,Phases=1,LineCode=tieSwitch1,Length=0.001,Units=km,switch=T !numEQ 116461
new line.CTR128793 bus1=BMT167452763.1.2.3,bus2=BMT167453059.1.2.3,Phases=3,LineCode=tieSwitch,Length=0.001,Units=km,switch=T !numEQ 44835
new line.CTR12915 bus1=BMT167452882.1.2.3,bus2=BMT167452887.1.2.3,Phases=3,LineCode=tieSwitch,Length=0.001,Units=km,switch=T !numEQ 131015
new line.CTR145761 bus1=BMT167460952.1,bus2=BMT168283491.1,Phases=1,LineCode=tieSwitch1,Length=0.001,Units=km,switch=T !numEQ 46463
new line.CTR145943 bus1=BMT167453433.2,bus2=BMT172393894.2,Phases=1,LineCode=tieSwitch1,Length=0.001,Units=km,switch=T !numEQ 44748
new line.CTR146559 bus1=BMT167460034.1.2.3,bus2=BMT167460092.1.2.3,Phases=3,LineCode=tieSwitch,Length=0.001,Units=km,switch=T !numEQ 79664
new line.CTR160272 bus1=BMT167458446.1.2.3,bus2=BMT167454080.1.2.3,Phases=3,LineCode=tieSwitch,Length=0.001,Units=km,switch=T !numEQ 133744
open line.CTR160272 term=1
new line.CTR172732 bus1=BMT167453125.1.2.3,bus2=BMT169765560.1.2.3,Phases=3,LineCode=tieSwitch,Length=0.001,Units=km,switch=T !numEQ 139994
new line.CTR185549 bus1=BMT167458647.2,bus2=BMT167458650.2,Phases=1,LineCode=tieSwitch1,Length=0.001,Units=km,switch=T !numEQ 47964
new line.CTR29351 bus1=BMT170577883.3,bus2=BMT170577885.3,Phases=1,LineCode=tieSwitch1,Length=0.001,Units=km,switch=T !numEQ 103616
new line.CTR29393 bus1=BMT167453237.2,bus2=BMT167453254.2,Phases=1,LineCode=tieSwitch1,Length=0.001,Units=km,switch=T !numEQ 15518
new line.CTR363712 bus1=BMT168685051.1.2.3,bus2=BMT168685062.1.2.3,Phases=3,LineCode=tieSwitch,Length=0.001,Units=km,switch=T !numEQ 282238
new line.CTR363803 bus1=BMT167458658.1.2.3,bus2=BMT167459008.1.2.3,Phases=3,LineCode=tieSwitch,Length=0.001,Units=km,switch=T !numEQ 288369
new line.CTR363852 bus1=BMT167460025.1.2.3,bus2=BMT169800812.1.2.3,Phases=3,LineCode=tieSwitch,Length=0.001,Units=km,switch=T !numEQ 288373
new line.CTR365329 bus1=BMT167453623.2,bus2=BMT172737613.2,Phases=1,LineCode=tieSwitch1,Length=0.001,Units=km,switch=T !numEQ 226658
new line.CTR395702 bus1=BMT167453372.2,bus2=BMT167453759.2,Phases=1,LineCode=tieSwitch1,Length=0.001,Units=km,switch=T !numEQ 320248
new line.CTR395709 bus1=BMT167460264.1.2.3,bus2=BMT167460395.1.2.3,Phases=3,LineCode=tieSwitch,Length=0.001,Units=km,switch=T !numEQ 299478
new line.CTR41762 bus1=BMT168685095.1,bus2=BMT168685102.1,Phases=1,LineCode=tieSwitch1,Length=0.001,Units=km,switch=T !numEQ 103673
new line.CTR419572 bus1=BMT167459546.1,bus2=BMT167459611.1,Phases=1,LineCode=tieSwitch1,Length=0.001,Units=km,switch=T !numEQ 298066
new line.CTR419607 bus1=BMT167459553.2,bus2=BMT167459554.2,Phases=1,LineCode=tieSwitch1,Length=0.001,Units=km,switch=T !numEQ 298068
new line.CTR449651 bus1=BMT167454340.3,bus2=BMT167454343.3,Phases=1,LineCode=tieSwitch1,Length=0.001,Units=km,switch=T !numEQ 291331
new line.CTR450603 bus1=BMT172357418.2,bus2=BMT167458480.2,Phases=1,LineCode=tieSwitch1,Length=0.001,Units=km,switch=T !numEQ 291343
new line.CTR450610 bus1=BMT167458488.2,bus2=BMT167459822.2,Phases=1,LineCode=tieSwitch1,Length=0.001,Units=km,switch=T !numEQ 291345
new line.CTR450638 bus1=BMT167458492.1.2.3,bus2=BMT167459500.1.2.3,Phases=3,LineCode=tieSwitch,Length=0.001,Units=km,switch=T !numEQ 291347
new line.CTR453179 bus1=BMT167459631.1,bus2=BMT167459698.1,Phases=1,LineCode=tieSwitch1,Length=0.001,Units=km,switch=T !numEQ 298064
new line.CTR453291 bus1=BMT167460518.2,bus2=BMT167460519.2,Phases=1,LineCode=tieSwitch1,Length=0.001,Units=km,switch=T !numEQ 301913
new line.CTR453298 bus1=BMT167459978.2,bus2=BMT167460466.2,Phases=1,LineCode=tieSwitch1,Length=0.001,Units=km,switch=T !numEQ 302682
new line.CTR453333 bus1=BMT172636713.2,bus2=BMT167460486.2,Phases=1,LineCode=tieSwitch1,Length=0.001,Units=km,switch=T !numEQ 301915
new line.CTR5243 bus1=BMT167461456.1.2.3,bus2=BMT170020521.1.2.3,Phases=3,LineCode=tieSwitch,Length=0.001,Units=km,switch=T !numEQ 172990
new line.CTR55440 bus1=BMT167458938.2,bus2=BMT172584363.2,Phases=1,LineCode=tieSwitch1,Length=0.001,Units=km,switch=T !numEQ 47202
new line.CTR60249 bus1=BMT167453126.2,bus2=BMT170378464.2,Phases=1,LineCode=tieSwitch1,Length=0.001,Units=km,switch=T !numEQ 115644
new line.CTR64624 bus1=BMT167453220.2,bus2=BMT167453233.2,Phases=1,LineCode=tieSwitch1,Length=0.001,Units=km,switch=T !numEQ 306207
new line.CTR64883 bus1=BMT167453154.1.2.3,bus2=BMT167453865.1.2.3,Phases=3,LineCode=tieSwitch,Length=0.001,Units=km,switch=T !numEQ 44689
new line.CTR76440 bus1=BMT167453602.2,bus2=BMT167453603.2,Phases=1,LineCode=tieSwitch1,Length=0.001,Units=km,switch=T !numEQ 46342
new line.CTR76503 bus1=BMT167453486.2,bus2=BMT170084657.2,Phases=1,LineCode=tieSwitch1,Length=0.001,Units=km,switch=T !numEQ 110150
new line.CTR76909 bus1=BMT167454587.1.2.3,bus2=BMT167454588.1.2.3,Phases=3,LineCode=tieSwitch,Length=0.001,Units=km,switch=T !numEQ 103626
new line.CTR81557 bus1=BMT167454131.1,bus2=BMT167454132.1,Phases=1,LineCode=tieSwitch1,Length=0.001,Units=km,switch=T !numEQ 44704
new line.CTR85029 bus1=BMT167453037.1.2.3,bus2=BMT167453053.1.2.3,Phases=3,LineCode=tieSwitch,Length=0.001,Units=km,switch=T !numEQ 119061
new line.CTR875232 bus1=BMT167452857.1.2.3,bus2=BMT167452858.1.2.3,Phases=3,LineCode=tieSwitch,Length=0.001,Units=km,switch=T !numEQ 243091
new line.CTR884326 bus1=BMT168685269.2,bus2=BMT168685276.2,Phases=1,LineCode=tieSwitch1,Length=0.001,Units=km,switch=T !numEQ 258430
new line.CTR88466 bus1=BMT167459946.3,bus2=BMT168466429.3,Phases=1,LineCode=tieSwitch1,Length=0.001,Units=km,switch=T !numEQ 173929
new line.CTR884915 bus1=BMT170020499.1.2.3,bus2=BMT170020505.1.2.3,Phases=3,LineCode=tieSwitch,Length=0.001,Units=km,switch=T !numEQ 234798
new line.CTR884917 bus1=BMT167459858.1.2.3,bus2=BMT167461436.1.2.3,Phases=3,LineCode=tieSwitch,Length=0.001,Units=km,switch=T !numEQ 234800
new line.CTR885476 bus1=BMT167460767.1.2.3,bus2=BMT167460768.1.2.3,Phases=3,LineCode=tieSwitch,Length=0.001,Units=km,switch=T !numEQ 258348
new line.CTR885477 bus1=BMT167459933.1.2.3,bus2=BMT167460766.1.2.3,Phases=3,LineCode=tieSwitch,Length=0.001,Units=km,switch=T !numEQ 258347
new line.CTR885500 bus1=BMT167453885.3,bus2=BMT167453902.3,Phases=1,LineCode=tieSwitch1,Length=0.001,Units=km,switch=T !numEQ 263248
new line.CTR885754 bus1=BMT167459153.3,bus2=BMT167459403.3,Phases=1,LineCode=tieSwitch1,Length=0.001,Units=km,switch=T !numEQ 255443
new line.CTR136178 bus1=BMT170020004.1.2.3,bus2=BMT168684936.1.2.3,Phases=3,LineCode=tieSwitch,Length=0.001,Units=km,switch=T !numEQ 79195
new line.CTR136199 bus1=BMT167452878.1.2.3,bus2=BMT167452879.1.2.3,Phases=3,LineCode=tieSwitch,Length=0.001,Units=km,switch=T !numEQ 44842
new line.CTR136234 bus1=BMT167452826.1.2.3,bus2=BMT167452901.1.2.3,Phases=3,LineCode=tieSwitch,Length=0.001,Units=km,switch=T !numEQ 44844
new line.CTR136241 bus1=BMT167452855.1.2.3,bus2=BMT167452861.1.2.3,Phases=3,LineCode=tieSwitch,Length=0.001,Units=km,switch=T !numEQ 44843
new line.CTR136255 bus1=BMT167452827.1.2.3,bus2=BMT167452933.1.2.3,Phases=3,LineCode=tieSwitch,Length=0.001,Units=km,switch=T !numEQ 79198
new line.CTR136262 bus1=BMT167461382.1.2.3,bus2=BMT167461418.1.2.3,Phases=3,LineCode=tieSwitch,Length=0.001,Units=km,switch=T !numEQ 44827
new line.CTR136269 bus1=BMT167452708.1.2.3,bus2=BMT167452709.1.2.3,Phases=3,LineCode=tieSwitch,Length=0.001,Units=km,switch=T !numEQ 44805
new line.CTR136752 bus1=BMT167458570.1.2.3,bus2=BMT167459085.1.2.3,Phases=3,LineCode=tieSwitch,Length=0.001,Units=km,switch=T !numEQ 144419
new line.CTR151585 bus1=BMT167458464.1.2.3,bus2=BMT167458465.1.2.3,Phases=3,LineCode=tieSwitch,Length=0.001,Units=km,switch=T !numEQ 44845
new line.CTR151914 bus1=BMT167460207.1.2.3,bus2=BMT167460228.1.2.3,Phases=3,LineCode=tieSwitch,Length=0.001,Units=km,switch=T !numEQ 175610
new line.CTR178339 bus1=BMT167452801.1.2.3,bus2=BMT170957457.1.2.3,Phases=3,LineCode=tieSwitch,Length=0.001,Units=km,switch=T !numEQ 44825
new line.CTR1785 bus1=BMT167453221.1.2.3,bus2=BMT167453782.1.2.3,Phases=3,LineCode=tieSwitch,Length=0.001,Units=km,switch=T !numEQ 104022
new line.CTR190624 bus1=BMT167454020.1.2.3,bus2=BMT167454028.1.2.3,Phases=3,LineCode=tieSwitch,Length=0.001,Units=km,switch=T !numEQ 223381
new line.CTR191219 bus1=BMT167459987.1,bus2=BMT167460460.1,Phases=1,LineCode=tieSwitch1,Length=0.001,Units=km,switch=T !numEQ 221768
new line.CTR22064 bus1=BMT167461378.1.2.3,bus2=BMT167461383.1.2.3,Phases=3,LineCode=tieSwitch,Length=0.001,Units=km,switch=T !numEQ 79215
new line.CTR332457 bus1=BMT167453270.3,bus2=BMT167453271.3,Phases=1,LineCode=tieSwitch1,Length=0.001,Units=km,switch=T !numEQ 223423
new line.CTR333689 bus1=BMT167460200.1,bus2=BMT167460202.1,Phases=1,LineCode=tieSwitch1,Length=0.001,Units=km,switch=T !numEQ 283447
new line.CTR3871 bus1=BMT167454501.2,bus2=BMT172502259.2,Phases=1,LineCode=tieSwitch1,Length=0.001,Units=km,switch=T !numEQ 47417
new line.CTR3892 bus1=BMT167454487.1.2.3,bus2=BMT167454491.1.2.3,Phases=3,LineCode=tieSwitch,Length=0.001,Units=km,switch=T !numEQ 15484
new line.CTR3899 bus1=BMT167454486.1.2.3,bus2=BMT167454548.1.2.3,Phases=3,LineCode=tieSwitch,Length=0.001,Units=km,switch=T !numEQ 47368
new line.CTR3913 bus1=BMT167454349.1.2.3,bus2=BMT167454351.1.2.3,Phases=3,LineCode=tieSwitch,Length=0.001,Units=km,switch=T !numEQ 15480
new line.CTR444996 bus1=BMT167453419.1,bus2=BMT167453421.1,Phases=1,LineCode=tieSwitch1,Length=0.001,Units=km,switch=T !numEQ 312270
new line.CTR50085 bus1=BMT167460439.1.2.3,bus2=BMT167460441.1.2.3,Phases=3,LineCode=tieSwitch,Length=0.001,Units=km,switch=T !numEQ 79237
new line.CTR50197 bus1=BMT167454127.3,bus2=BMT167454214.3,Phases=1,LineCode=tieSwitch1,Length=0.001,Units=km,switch=T !numEQ 47201
new line.CTR50211 bus1=BMT167454136.2,bus2=BMT169036016.2,Phases=1,LineCode=tieSwitch1,Length=0.001,Units=km,switch=T !numEQ 47224
new line.CTR50218 bus1=BMT167454120.1.2.3,bus2=BMT167454309.1.2.3,Phases=3,LineCode=tieSwitch,Length=0.001,Units=km,switch=T !numEQ 47411
new line.CTR50239 bus1=BMT167454125.1,bus2=BMT167454218.1,Phases=1,LineCode=tieSwitch1,Length=0.001,Units=km,switch=T !numEQ 46992
new line.CTR50246 bus1=BMT167454231.3,bus2=BMT172895338.3,Phases=1,LineCode=tieSwitch1,Length=0.001,Units=km,switch=T !numEQ 47240
new line.CTR50253 bus1=BMT167454238.3,bus2=BMT167454298.3,Phases=1,LineCode=tieSwitch1,Length=0.001,Units=km,switch=T !numEQ 47337
new line.CTR63763 bus1=BMT167458481.1,bus2=BMT167459828.1,Phases=1,LineCode=tieSwitch1,Length=0.001,Units=km,switch=T !numEQ 172084
new line.CTR77189 bus1=BMT167458566.1.2.3,bus2=BMT170884822.1.2.3,Phases=3,LineCode=tieSwitch,Length=0.001,Units=km,switch=T !numEQ 103669
new line.CTR77329 bus1=BMT167452772.1.2.3,bus2=BMT167929736.1.2.3,Phases=3,LineCode=tieSwitch,Length=0.001,Units=km,switch=T !numEQ 44809
new line.CTR77343 bus1=BMT168684913.1.2.3,bus2=BMT169082060.1.2.3,Phases=3,LineCode=tieSwitch,Length=0.001,Units=km,switch=T !numEQ 44812
new line.CTR77350 bus1=BMT167452786.1.2.3,bus2=BMT167453026.1.2.3,Phases=3,LineCode=tieSwitch,Length=0.001,Units=km,switch=T !numEQ 307956
new line.CTR77581 bus1=BMT168685250.2,bus2=BMT168685257.2,Phases=1,LineCode=tieSwitch1,Length=0.001,Units=km,switch=T !numEQ 103701
new line.CTR848350 bus1=BMT167453873.3,bus2=BMT167453874.3,Phases=1,LineCode=tieSwitch1,Length=0.001,Units=km,switch=T !numEQ 316186
new line.CTR848760 bus1=BMT167453615.2,bus2=BMT167453616.2,Phases=1,LineCode=tieSwitch1,Length=0.001,Units=km,switch=T !numEQ 307953
new line.CTR868715 bus1=BMT168684996.1,bus2=BMT168685038.1,Phases=1,LineCode=tieSwitch1,Length=0.001,Units=km,switch=T !numEQ 239573
new line.CTR868716 bus1=BMT168684999.2,bus2=BMT168685000.2,Phases=1,LineCode=tieSwitch1,Length=0.001,Units=km,switch=T !numEQ 239574
new line.CTR868885 bus1=BMT168685401.1.2.3,bus2=BMT167452613.1.2.3,Phases=3,LineCode=tieSwitch,Length=0.001,Units=km,switch=T !numEQ 236222
open line.CTR868885 term=1
new line.CTR868886 bus1=BMT167461444.1.2.3,bus2=BMT167461449.1.2.3,Phases=3,LineCode=tieSwitch,Length=0.001,Units=km,switch=T !numEQ 236221
new line.CTR868888 bus1=BMT167461437.1.2.3,bus2=BMT167461438.1.2.3,Phases=3,LineCode=tieSwitch,Length=0.001,Units=km,switch=T !numEQ 236220
new line.CTR868907 bus1=BMT168685396.1.2.3,bus2=BMT171610960.1.2.3,Phases=3,LineCode=tieSwitch,Length=0.001,Units=km,switch=T !numEQ 239282
new line.CTR869444 bus1=BMT167454639.1.2.3,bus2=BMT167454642.1.2.3,Phases=3,LineCode=tieSwitch,Length=0.001,Units=km,switch=T !numEQ 316151
new line.CTR887704 bus1=BMT167458574.1.2.3,bus2=BMT167459076.1.2.3,Phases=3,LineCode=tieSwitch,Length=0.001,Units=km,switch=T !numEQ 258361
new line.CTR887706 bus1=BMT167459077.1,bus2=BMT167459081.1,Phases=1,LineCode=tieSwitch1,Length=0.001,Units=km,switch=T !numEQ 258362
new line.CTR887778 bus1=BMT167459312.3,bus2=BMT167459318.3,Phases=1,LineCode=tieSwitch1,Length=0.001,Units=km,switch=T !numEQ 265676
new line.CTR888461 bus1=BMT167458449.1,bus2=BMT167459834.1,Phases=1,LineCode=tieSwitch1,Length=0.001,Units=km,switch=T !numEQ 259735
new line.CTR88872 bus1=BMT169902933.1.2.3,bus2=BMT169902978.1.2.3,Phases=3,LineCode=tieSwitch,Length=0.001,Units=km,switch=T !numEQ 104027
new line.CTR189077 bus1=BMT167459876.1.2.3,bus2=BMT167459880.1.2.3,Phases=3,LineCode=tieSwitch,Length=0.001,Units=km,switch=T !numEQ 214152
new line.CTR197239 bus1=BMT167452816.1.2.3,bus2=BMT167452818.1.2.3,Phases=3,LineCode=tieSwitch,Length=0.001,Units=km,switch=T !numEQ 230568
new line.CTR197638 bus1=BMT167460424.2,bus2=BMT168987575.2,Phases=1,LineCode=tieSwitch1,Length=0.001,Units=km,switch=T !numEQ 230627
new line.CTR198513 bus1=BMT167453226.1,bus2=BMT167453358.1,Phases=1,LineCode=tieSwitch1,Length=0.001,Units=km,switch=T !numEQ 232004
new line.CTR329405 bus1=BMT170751335.3,bus2=BMT167460637.3,Phases=1,LineCode=tieSwitch1,Length=0.001,Units=km,switch=T !numEQ 228704
new line.CTR330889 bus1=BMT167460576.3,bus2=BMT167460602.3,Phases=1,LineCode=tieSwitch1,Length=0.001,Units=km,switch=T !numEQ 226657
new line.CTR356761 bus1=BMT168685081.1,bus2=BMT168685114.1,Phases=1,LineCode=tieSwitch1,Length=0.001,Units=km,switch=T !numEQ 287379
new line.CTR383970 bus1=BMT168685232.2,bus2=BMT171785566.2,Phases=1,LineCode=tieSwitch1,Length=0.001,Units=km,switch=T !numEQ 208151
new line.CTR384460 bus1=BMT167453309.3,bus2=BMT167453318.3,Phases=1,LineCode=tieSwitch1,Length=0.001,Units=km,switch=T !numEQ 295993
new line.CTR412173 bus1=BMT167460923.1,bus2=BMT167461012.1,Phases=1,LineCode=tieSwitch1,Length=0.001,Units=km,switch=T !numEQ 294793
new line.CTR414238 bus1=BMT167458535.1.2.3,bus2=BMT170509702.1.2.3,Phases=3,LineCode=tieSwitch,Length=0.001,Units=km,switch=T !numEQ 291334
new line.CTR414259 bus1=BMT167458544.1.2.3,bus2=BMT167458545.1.2.3,Phases=3,LineCode=tieSwitch,Length=0.001,Units=km,switch=T !numEQ 291335
new line.CTR415015 bus1=BMT167454579.1.2.3,bus2=BMT167454580.1.2.3,Phases=3,LineCode=tieSwitch,Length=0.001,Units=km,switch=T !numEQ 304147
new line.CTR43806 bus1=BMT167452720.1.2.3,bus2=BMT167452743.1.2.3,Phases=3,LineCode=tieSwitch,Length=0.001,Units=km,switch=T !numEQ 380059
new line.CTR50848 bus1=BMT167459855.1.2.3,bus2=BMT167461470.1.2.3,Phases=3,LineCode=tieSwitch,Length=0.001,Units=km,switch=T !numEQ 202803
new line.CTR51247 bus1=BMT167453379.2,bus2=BMT167453747.2,Phases=1,LineCode=tieSwitch1,Length=0.001,Units=km,switch=T !numEQ 47529
new line.CTR51254 bus1=BMT167453453.2,bus2=BMT167453643.2,Phases=1,LineCode=tieSwitch1,Length=0.001,Units=km,switch=T !numEQ 79300
new line.CTR51261 bus1=BMT167453597.2,bus2=BMT167453635.2,Phases=1,LineCode=tieSwitch1,Length=0.001,Units=km,switch=T !numEQ 79302
new line.CTR51289 bus1=BMT167453404.1,bus2=BMT172496070.1,Phases=1,LineCode=tieSwitch1,Length=0.001,Units=km,switch=T !numEQ 44744
new line.CTR51296 bus1=BMT167453709.1,bus2=BMT172394517.1,Phases=1,LineCode=tieSwitch1,Length=0.001,Units=km,switch=T !numEQ 79295
new line.CTR51303 bus1=BMT167453229.2,bus2=BMT167453352.2,Phases=1,LineCode=tieSwitch1,Length=0.001,Units=km,switch=T !numEQ 79340
new line.CTR51310 bus1=BMT167453232.1.2.3,bus2=BMT170572839.1.2.3,Phases=3,LineCode=tieSwitch,Length=0.001,Units=km,switch=T !numEQ 79342
new line.CTR51324 bus1=BMT167453267.3,bus2=BMT167453269.3,Phases=1,LineCode=tieSwitch1,Length=0.001,Units=km,switch=T !numEQ 79345
new line.CTR51338 bus1=BMT167459172.3,bus2=BMT167459176.3,Phases=1,LineCode=tieSwitch1,Length=0.001,Units=km,switch=T !numEQ 47229
new line.CTR63322 bus1=BMT167458505.1.2.3,bus2=BMT170510277.1.2.3,Phases=3,LineCode=tieSwitch,Length=0.001,Units=km,switch=T !numEQ 291349
new line.CTR6636 bus1=BMT169191083.1.2.3,bus2=BMT167452149.1.2.3,Phases=3,LineCode=tieSwitch,Length=0.001,Units=km,switch=T !numEQ 135463
open line.CTR6636 term=1
new line.CTR66416 bus1=BMT167461455.1.2.3,bus2=BMT167461468.1.2.3,Phases=3,LineCode=tieSwitch,Length=0.001,Units=km,switch=T !numEQ 127671
new line.CTR6650 bus1=BMT167452787.1.2.3,bus2=BMT167453055.1.2.3,Phases=3,LineCode=tieSwitch,Length=0.001,Units=km,switch=T !numEQ 44800
new line.CTR75166 bus1=BMT167453499.2,bus2=BMT171727538.2,Phases=1,LineCode=tieSwitch1,Length=0.001,Units=km,switch=T !numEQ 47736
new line.CTR75453 bus1=BMT167460488.2,bus2=BMT167460536.2,Phases=1,LineCode=tieSwitch1,Length=0.001,Units=km,switch=T !numEQ 119862
new line.CTR844632 bus1=BMT167461084.1.2.3,bus2=BMT167461087.1.2.3,Phases=3,LineCode=tieSwitch,Length=0.001,Units=km,switch=T !numEQ 312187
new line.CTR844633 bus1=BMT167461086.3,bus2=BMT167461089.3,Phases=1,LineCode=tieSwitch1,Length=0.001,Units=km,switch=T !numEQ 312183
new line.CTR845517 bus1=BMT167452694.1.2.3,bus2=BMT167453074.1.2.3,Phases=3,LineCode=tieSwitch,Length=0.001,Units=km,switch=T !numEQ 373519
new line.CTR854579 bus1=BMT167461120.1.2.3,bus2=BMT167461150.1.2.3,Phases=3,LineCode=tieSwitch,Length=0.001,Units=km,switch=T !numEQ 282276
new line.CTR855371 bus1=BMT167460860.1.2.3,bus2=BMT167460861.1.2.3,Phases=3,LineCode=tieSwitch,Length=0.001,Units=km,switch=T !numEQ 380740
new line.CTR855469 bus1=BMT167460846.1.2.3,bus2=BMT167461280.1.2.3,Phases=3,LineCode=tieSwitch,Length=0.001,Units=km,switch=T !numEQ 380742
new line.CTR855473 bus1=BMT167461285.1.2.3,bus2=BMT167461320.1.2.3,Phases=3,LineCode=tieSwitch,Length=0.001,Units=km,switch=T !numEQ 380743
new line.CTR855476 bus1=BMT167461287.1,bus2=BMT167461288.1,Phases=1,LineCode=tieSwitch1,Length=0.001,Units=km,switch=T !numEQ 381968
new line.CTR855478 bus1=BMT167460845.1.2.3,bus2=BMT172959559.1.2.3,Phases=3,LineCode=tieSwitch,Length=0.001,Units=km,switch=T !numEQ 382059
new line.CTR855480 bus1=BMT167461290.1,bus2=BMT167461292.1,Phases=1,LineCode=tieSwitch1,Length=0.001,Units=km,switch=T !numEQ 380751
new line.CTR866754 bus1=BMT168685391.1.2.3,bus2=BMT168685394.1.2.3,Phases=3,LineCode=tieSwitch,Length=0.001,Units=km,switch=T !numEQ 236223
new line.CTR877323 bus1=BMT167459156.3,bus2=BMT167459157.3,Phases=1,LineCode=tieSwitch1,Length=0.001,Units=km,switch=T !numEQ 250057
new line.CTR877549 bus1=BMT167460272.1.2.3,bus2=BMT167460392.1.2.3,Phases=3,LineCode=tieSwitch,Length=0.001,Units=km,switch=T !numEQ 249724
new line.CTR877571 bus1=BMT167458556.1.2.3,bus2=BMT167454404.1.2.3,Phases=3,LineCode=tieSwitch,Length=0.001,Units=km,switch=T !numEQ 250065
open line.CTR877571 term=1
new line.CTR889765 bus1=BMT167459082.1,bus2=BMT167459083.1,Phases=1,LineCode=tieSwitch1,Length=0.001,Units=km,switch=T !numEQ 265688
...