2024_89_CemigReconfigurationCases/1_SEsCemig/OUF05/OUF05Transformadores.dss
new transformer.1088142 Phases=1,Windings=3,Buses=[BMT167453586.2 BBT143365317.1.0 BBT143365317.0.2],Conns=[wye wye wye],kvs=[7.967 0.12 0.12],kvas=[15.000000000 15.000000000 15.000000000],Taps=[1,1.000000000,1.000000000],%loadloss=1.600000000,%noloadloss=0.400000000
new transformer.1118186 Phases=3,Windings=2,Buses=[BMT167460109.1.2.3 BBT149967740.1.2.3.0],Conns=[delta wye],kvs=[13.8 0.22],kvas=[45.000000000 45.000000000],Taps=[1,1.000000000],%loadloss=1.522000000,%noloadloss=0.377777000
new transformer.1118214 Phases=3,Windings=2,Buses=[BMT167460196.1.2.3 BBT149967940.1.2.3.0],Conns=[delta wye],kvs=[13.8 0.22],kvas=[45.000000000 45.000000000],Taps=[1,1.000000000],%loadloss=1.522000000,%noloadloss=0.377777000
new transformer.1118291 Phases=3,Windings=2,Buses=[BMT167460113.1.2.3 BBT149968072.1.2.3.0],Conns=[delta wye],kvs=[13.8 0.22],kvas=[45.000000000 45.000000000],Taps=[1,1.000000000],%loadloss=1.522000000,%noloadloss=0.377777000
new transformer.1118305 Phases=3,Windings=2,Buses=[BMT167460114.1.2.3 BBT149968170.1.2.3.0],Conns=[delta wye],kvs=[13.8 0.22],kvas=[45.000000000 45.000000000],Taps=[1,1.000000000],%loadloss=1.522000000,%noloadloss=0.377777000
new transformer.1118347 Phases=3,Windings=2,Buses=[BMT167460110.1.2.3 BBT149968313.1.2.3.0],Conns=[delta wye],kvs=[13.8 0.22],kvas=[45.000000000 45.000000000],Taps=[1,1.000000000],%loadloss=1.522000000,%noloadloss=0.377777000
new transformer.1399403 Phases=1,Windings=3,Buses=[BMT167459043.1 BBT157050317.1.0 BBT157050317.0.2],Conns=[wye wye wye],kvs=[7.967 0.12 0.12],kvas=[10.000000000 10.000000000 10.000000000],Taps=[1,1.000000000,1.000000000],%loadloss=1.800000000,%noloadloss=0.450000000
new transformer.1405289 Phases=1,Windings=3,Buses=[BMT172646683.2 BBT151687222.1.0 BBT151687222.0.2],Conns=[wye wye wye],kvs=[7.967 0.12 0.12],kvas=[15.000000000 15.000000000 15.000000000],Taps=[1,1.000000000,1.000000000],%loadloss=1.600000000,%noloadloss=0.400000000
new transformer.1405319 Phases=3,Windings=2,Buses=[BMT171058456.1.2.3 BBT171051829.1.2.3.0],Conns=[delta wye],kvs=[13.8 0.22],kvas=[45.000000000 45.000000000],Taps=[1,1.000000000],%loadloss=1.522000000,%noloadloss=0.377777000
new transformer.1405372 Phases=1,Windings=3,Buses=[BMT167458463.1 BBT151713376.1.0 BBT151713376.0.2],Conns=[wye wye wye],kvs=[7.967 0.12 0.12],kvas=[15.000000000 15.000000000 15.000000000],Taps=[1,1.000000000,1.000000000],%loadloss=1.600000000,%noloadloss=0.400000000
new transformer.1411090 Phases=1,Windings=3,Buses=[BMT167460333.2 BBT153073744.1.0 BBT153073744.0.2],Conns=[wye wye wye],kvs=[7.967 0.12 0.12],kvas=[15.000000000 15.000000000 15.000000000],Taps=[1,1.000000000,1.000000000],%loadloss=1.600000000,%noloadloss=0.400000000
new transformer.1417280 Phases=1,Windings=3,Buses=[BMT168685283.2 BBT154485113.1.0 BBT154485113.0.2],Conns=[wye wye wye],kvs=[7.967 0.12 0.12],kvas=[10.000000000 10.000000000 10.000000000],Taps=[1,1.000000000,1.000000000],%loadloss=1.800000000,%noloadloss=0.450000000
new transformer.1422917 Phases=1,Windings=3,Buses=[BMT171659976.1 BBT155700845.1.0 BBT155700845.0.2],Conns=[wye wye wye],kvs=[7.967 0.12 0.12],kvas=[10.000000000 10.000000000 10.000000000],Taps=[1,1.000000000,1.000000000],%loadloss=1.800000000,%noloadloss=0.450000000
new transformer.1423144 Phases=1,Windings=3,Buses=[BMT172636729.2 BBT155746675.1.0 BBT155746675.0.2],Conns=[wye wye wye],kvs=[7.967 0.12 0.12],kvas=[35.000000000 35.000000000 35.000000000],Taps=[1,1.000000000,1.000000000],%loadloss=1.293000000,%noloadloss=0.342857000
new transformer.1423307 Phases=1,Windings=3,Buses=[BMT171785581.2 BBT155773331.1.0 BBT155773331.0.2],Conns=[wye wye wye],kvs=[7.967 0.12 0.12],kvas=[10.000000000 10.000000000 10.000000000],Taps=[1,1.000000000,1.000000000],%loadloss=1.800000000,%noloadloss=0.450000000
new transformer.1428963 Phases=3,Windings=2,Buses=[BMT167452870.1.2.3 BBT156982486.1.2.3.0],Conns=[delta wye],kvs=[13.8 0.22],kvas=[45.000000000 45.000000000],Taps=[1,1.000000000],%loadloss=1.522000000,%noloadloss=0.377777000
new transformer.1428966 Phases=3,Windings=2,Buses=[BMT167452869.1.2.3 BBT156983871.1.2.3.0],Conns=[delta wye],kvs=[13.8 0.22],kvas=[45.000000000 45.000000000],Taps=[1,1.000000000],%loadloss=1.522000000,%noloadloss=0.377777000
new transformer.1429320 Phases=3,Windings=2,Buses=[BMT167452927.1.2.3 BBT157062274.1.2.3.0],Conns=[delta wye],kvs=[13.8 0.22],kvas=[45.000000000 45.000000000],Taps=[1,1.000000000],%loadloss=1.522000000,%noloadloss=0.377777000
new transformer.1429321 Phases=3,Windings=2,Buses=[BMT167452928.1.2.3 BBT157062310.1.2.3.0],Conns=[delta wye],kvs=[13.8 0.22],kvas=[45.000000000 45.000000000],Taps=[1,1.000000000],%loadloss=1.522000000,%noloadloss=0.377777000
new transformer.1429323 Phases=3,Windings=2,Buses=[BMT167452925.1.2.3 BBT157062406.1.2.3.0],Conns=[delta wye],kvs=[13.8 0.22],kvas=[45.000000000 45.000000000],Taps=[1,1.000000000],%loadloss=1.522000000,%noloadloss=0.377777000
...